units(length='cm', time='s', quantity='mol', act_energy='kcal/mol')

ideal_gas(name='gas',
          elements="H D T C Ci O Oi N Ne Ar He Si S F Cl Br I X",
          species="""n-heptane  Ar         He         Ne         N2
                     C2H4(2)    C4H8-1(3)  C4H8-2(4)  H2(17)     CH4(99)""",
          transport='Mix',
          initial_state=state(temperature=300.0, pressure=OneAtm))

ideal_interface(name='surface1',
                elements="H D T C Ci O Oi N Ne Ar He Si S F Cl Br I X",
                species="""X(1)        HX(5)       C2H3X(37)   CH2X(38)
                          allylX(40)  CH3X(41)    C2H5X(42)   C4H7X(43)
                          C4H7X(44)   C4H7X(45)   C4H7X(46)   C3H5X(49)
                          C2H4X(52)   C2H2X(64)   H2_ads(68)  C2H3X(72)
                          CH4X(80)    C2H6X(82)   C3H5X(85)   CH_ads(91)
                          C4H6X(96)   C3H4X(100)  C4H6X(126)  C4H7X(128)
                          C3H3X(179)  C4H5X(379)""",
                site_density=2.483e-09,
                phases="gas",
          reactions='all',
                initial_state=state(temperature=300.0, pressure=OneAtm))

#-------------------------------------------------------------------------------
# Element data
#-------------------------------------------------------------------------------

element(symbol='Ci', atomic_mass=13.003)
element(symbol='D', atomic_mass=2.014)
element(symbol='Oi', atomic_mass=17.999)
element(symbol='T', atomic_mass=3.016)
element(symbol='X', atomic_mass=195.083)
#-------------------------------------------------------------------------------
# Species data
#-------------------------------------------------------------------------------

species(name='n-heptane',
        atoms='C:7 H:16',
        thermo=(NASA([100.00, 1262.75],
                     [-2.93512125E-03,  7.69375610E-02, -3.48031525E-05,
                       1.86160506E-09,  2.01550529E-12, -2.57829334E+04,
                       3.00312819E+01]),
                NASA([1262.75, 5000.00],
                     [ 1.38379971E+01,  4.85941816E-02, -1.95472819E-05,
                       3.52833289E-09, -2.39061569E-13, -3.05142526E+04,
                      -4.48654615E+01])),
        transport=gas_transport(geom='nonlinear',
                                diam=6.366,
                                well_depth=402.997))

species(name='Ar',
        atoms='Ar:1',
        thermo=(NASA([200.00, 1000.00],
                     [ 2.50000000E+00,  0.00000000E+00,  0.00000000E+00,
                       0.00000000E+00,  0.00000000E+00, -7.45375000E+02,
                       4.37967000E+00]),
                NASA([1000.00, 6000.00],
                     [ 2.50000000E+00,  0.00000000E+00,  0.00000000E+00,
                       0.00000000E+00,  0.00000000E+00, -7.45375000E+02,
                       4.37967000E+00])),
        transport=gas_transport(geom='atom',
                                diam=3.33,
                                well_depth=136.501))

species(name='He',
        atoms='He:1',
        thermo=(NASA([200.00, 1000.00],
                     [ 2.50000000E+00,  0.00000000E+00,  0.00000000E+00,
                       0.00000000E+00,  0.00000000E+00, -7.45375000E+02,
                       9.28724000E-01]),
                NASA([1000.00, 6000.00],
                     [ 2.50000000E+00,  0.00000000E+00,  0.00000000E+00,
                       0.00000000E+00,  0.00000000E+00, -7.45375000E+02,
                       9.28724000E-01])),
        transport=gas_transport(geom='atom',
                                diam=2.576,
                                well_depth=10.2))

species(name='Ne',
        atoms='Ne:1',
        thermo=(NASA([200.00, 1000.00],
                     [ 2.50000000E+00,  0.00000000E+00,  0.00000000E+00,
                       0.00000000E+00,  0.00000000E+00, -7.45375000E+02,
                       3.35532000E+00]),
                NASA([1000.00, 6000.00],
                     [ 2.50000000E+00,  0.00000000E+00,  0.00000000E+00,
                       0.00000000E+00,  0.00000000E+00, -7.45375000E+02,
                       3.35532000E+00])),
        transport=gas_transport(geom='atom',
                                diam=3.758,
                                well_depth=148.6))

species(name='N2',
        atoms='N:2',
        thermo=(NASA([200.00, 1000.00],
                     [ 3.53101000E+00, -1.23661000E-04, -5.02999000E-07,
                       2.43531000E-09, -1.40881000E-12, -1.04698000E+03,
                       2.96747000E+00]),
                NASA([1000.00, 6000.00],
                     [ 2.95258000E+00,  1.39690000E-03, -4.92632000E-07,
                       7.86010000E-11, -4.60755000E-15, -9.23949000E+02,
                       5.87189000E+00])),
        transport=gas_transport(geom='linear',
                                diam=3.621,
                                well_depth=97.53,
                                polar=1.76,
                                rot_relax=4.0))

species(name='C2H4(2)',
        atoms='C:2 H:4',
        thermo=(NASA([100.00, 979.37],
                     [ 3.97469045E+00, -4.75813325E-03,  4.16772624E-05,
                      -4.51377676E-08,  1.54218287E-11,  4.91540855E+03,
                       3.62439976E+00]),
                NASA([979.37, 5000.00],
                     [ 3.55670229E+00,  1.10625819E-02, -4.17009559E-06,
                       7.85564219E-10, -5.70042086E-14,  4.32042473E+03,
                       2.17665377E+00])),
        transport=gas_transport(geom='nonlinear',
                                diam=3.971,
                                well_depth=280.801,
                                rot_relax=1.5))

species(name='C4H8-1(3)',
        atoms='C:4 H:8',
        thermo=(NASA([100.00, 1007.28],
                     [ 2.58772978E+00,  2.32777883E-02,  1.93412653E-05,
                      -3.55496729E-08,  1.36906178E-11, -1.91872929E+03,
                       1.45750592E+01]),
                NASA([1007.28, 5000.00],
                     [ 7.20516863E+00,  2.36361619E-02, -9.03150325E-06,
                       1.65392736E-09, -1.16019318E-13, -3.79733809E+03,
                      -1.24426086E+01])),
        transport=gas_transport(geom='nonlinear',
                                diam=5.176,
                                well_depth=357.002,
                                rot_relax=1.0))

species(name='C4H8-2(4)',
        atoms='C:4 H:8',
        thermo=(NASA([100.00, 1157.78],
                     [ 2.51999305E+00,  2.76811707E-02,  9.44135366E-07,
                      -1.25013222E-08,  4.67160311E-12, -3.34374810E+03,
                       1.30195268E+01]),
                NASA([1157.78, 5000.00],
                     [ 6.04218222E+00,  2.60073554E-02, -1.04844041E-05,
                       1.90882450E-09, -1.30601743E-13, -4.86273126E+03,
                      -7.52672501E+00])),
        transport=gas_transport(geom='nonlinear',
                                diam=5.289,
                                well_depth=359.053))

species(name='H2(17)',
        atoms='H:2',
        thermo=(NASA([100.00, 1959.08],
                     [ 3.43536411E+00,  2.12710383E-04, -2.78625110E-07,
                       3.40267219E-10, -7.76032129E-14, -1.03135984E+03,
                      -3.90841731E+00]),
                NASA([1959.08, 5000.00],
                     [ 2.78816619E+00,  5.87640475E-04,  1.59010635E-07,
                      -5.52739465E-11,  4.34311304E-15, -5.96144481E+02,
                       1.12730527E-01])),
        transport=gas_transport(geom='linear',
                                diam=2.833,
                                well_depth=59.7))

species(name='CH4(99)',
        atoms='C:1 H:4',
        thermo=(NASA([100.00, 1084.15],
                     [ 4.20540072E+00, -5.35540640E-03,  2.51117636E-05,
                      -2.13755910E-08,  5.97496145E-12, -1.01619427E+04,
                      -9.21226951E-01]),
                NASA([1084.15, 5000.00],
                     [ 9.08349401E-01,  1.14539479E-02, -4.57166053E-06,
                       8.29173612E-10, -5.66300105E-14, -9.72001110E+03,
                       1.39926204E+01])),
        transport=gas_transport(geom='nonlinear',
                                diam=3.746,
                                well_depth=141.4,
                                polar=2.6,
                                rot_relax=13.0))

species(name='X(1)',
        atoms='X:1',
        thermo=(NASA([298.00, 1000.00],
                     [ 0.00000000E+00,  0.00000000E+00,  0.00000000E+00,
                       0.00000000E+00,  0.00000000E+00,  0.00000000E+00,
                       0.00000000E+00]),
                NASA([1000.00, 3000.00],
                     [ 0.00000000E+00,  0.00000000E+00,  0.00000000E+00,
                       0.00000000E+00,  0.00000000E+00,  0.00000000E+00,
                       0.00000000E+00])))

species(name='HX(5)',
        atoms='H:1 X:1',
        thermo=(NASA([298.00, 1000.00],
                     [-1.96702988E+00,  1.67920714E-02, -2.50314139E-05,
                       1.80485455E-08, -5.11491197E-12, -3.21277026E+03,
                       7.68211257E+00]),
                NASA([1000.00, 2000.00],
                     [ 2.71968546E+00, -1.07696656E-03,  2.00193294E-06,
                      -1.12865983E-09,  2.11269165E-13, -4.24701712E+03,
                      -1.52793490E+01])))

species(name='C2H3X(37)',
        atoms='C:2 H:3 X:1',
        thermo=(NASA([100.00, 928.60],
                     [ 3.83104022E+00, -8.76542826E-03,  6.98017027E-05,
                      -8.68052566E-08,  3.33256145E-11, -3.39667604E+03,
                      -1.81156365E+01]),
                NASA([928.60, 5000.00],
                     [ 8.78015372E+00,  1.92565992E-03,  8.25424482E-07,
                      -1.63654020E-10,  5.70926320E-15, -5.69591407E+03,
                      -4.90566656E+01])))

species(name='CH2X(38)',
        atoms='C:1 H:2 X:1',
        thermo=(NASA([298.00, 1000.00],
                     [-2.26602367E+00,  2.92517765E-02, -4.32728797E-05,
                       3.30655723E-08, -9.93242641E-12, -2.23619445E+02,
                       8.22751288E+00]),
                NASA([1000.00, 2000.00],
                     [ 6.82572636E+00, -5.17192506E-03,  9.19551938E-06,
                      -4.87101486E-09,  8.67713091E-13, -2.26886621E+03,
                      -3.64410753E+01])))

species(name='allylX(40)',
        atoms='C:3 H:5 X:1',
        thermo=(NASA([100.00, 937.35],
                     [ 3.44141096E+00, -3.47613301E-03,  8.25901551E-05,
                      -1.05552399E-07,  4.04425050E-11, -4.16073695E+03,
                      -6.88821738E+00]),
                NASA([937.35, 5000.00],
                     [ 9.98170901E+00,  8.92230554E-03, -1.75420228E-06,
                       3.12232383E-10, -2.84111933E-14, -7.15762755E+03,
                      -4.74639238E+01])))

species(name='CH3X(41)',
        atoms='C:1 H:3 X:1',
        thermo=(NASA([298.00, 1000.00],
                     [ 5.80099877E-01,  1.66399977E-02, -1.39164870E-05,
                       6.70631582E-09, -1.31079175E-12, -6.31046932E+03,
                      -7.57148375E-01]),
                NASA([1000.00, 2000.00],
                     [ 8.67869881E+00, -7.84238420E-03,  1.38956076E-05,
                      -7.33600190E-09,  1.30321431E-12, -8.45079729E+03,
                      -4.20966823E+01])))

species(name='C2H5X(42)',
        atoms='C:2 H:5 X:1',
        thermo=(NASA([298.00, 1000.00],
                     [ 6.32861243E-01,  2.34315125E-02, -6.21561097E-06,
                      -7.04743109E-09,  4.32504726E-12, -1.03526448E+04,
                      -4.22788616E-01]),
                NASA([1000.00, 2000.00],
                     [ 1.50901779E+01, -1.47664787E-02,  2.62942501E-05,
                      -1.39941239E-08,  2.50255356E-12, -1.44464142E+04,
                      -7.55761454E+01])))

species(name='C4H7X(43)',
        atoms='C:4 H:7 X:1',
        thermo=(NASA([100.00, 971.02],
                     [ 2.64368251E+00,  1.79003685E-02,  4.24457324E-05,
                      -6.44047422E-08,  2.49602315E-11, -9.06350241E+03,
                      -6.70003109E+00]),
                NASA([971.02, 5000.00],
                     [ 9.25860008E+00,  2.04066151E-02, -7.39155270E-06,
                       1.37023983E-09, -9.94156257E-14, -1.17509367E+04,
                      -4.56419548E+01])))

species(name='C4H7X(44)',
        atoms='C:4 H:7 X:1',
        thermo=(NASA([100.00, 986.68],
                     [ 2.45797290E+00,  2.47218439E-02,  2.01282012E-05,
                      -4.02730332E-08,  1.62483577E-11, -6.61313595E+02,
                      -5.12988514E+00]),
                NASA([986.68, 5000.00],
                     [ 8.87901611E+00,  2.09043388E-02, -7.83847728E-06,
                       1.44075651E-09, -1.02346191E-13, -3.00968495E+03,
                      -4.15009568E+01])))

species(name='C4H7X(45)',
        atoms='C:4 H:7 X:1',
        thermo=(NASA([100.00, 965.04],
                     [ 2.56885679E+00,  1.97490862E-02,  3.72996972E-05,
                      -6.04065123E-08,  2.40010228E-11, -1.11666424E+04,
                      -8.56593019E+00]),
                NASA([965.04, 5000.00],
                     [ 9.89750247E+00,  1.86147853E-02, -6.38912892E-06,
                       1.17316108E-09, -8.55462900E-14, -1.39428121E+04,
                      -5.07166347E+01])))

species(name='C4H7X(46)',
        atoms='C:4 H:7 X:1',
        thermo=(NASA([100.00, 949.34],
                     [ 2.54262411E+00,  1.77379351E-02,  4.93913107E-05,
                      -7.72926578E-08,  3.10681685E-11, -9.94100898E+03,
                      -8.46811948E+00]),
                NASA([949.34, 5000.00],
                     [ 1.15217625E+01,  1.60010436E-02, -4.89849803E-06,
                       8.84035360E-10, -6.63762686E-14, -1.32724311E+04,
                      -5.98873444E+01])))

species(name='C3H5X(49)',
        atoms='C:3 H:5 X:1',
        thermo=(NASA([100.00, 939.07],
                     [ 3.23681525E+00,  3.73154944E-03,  6.01020526E-05,
                      -8.16234054E-08,  3.18530809E-11, -7.20991132E+03,
                      -1.35294815E+01]),
                NASA([939.07, 5000.00],
                     [ 9.70188975E+00,  9.48299599E-03, -2.25947885E-06,
                       3.98417297E-10, -3.27107153E-14, -9.89196473E+03,
                      -5.21286116E+01])))

species(name='C2H4X(52)',
        atoms='C:2 H:4 X:1',
        thermo=(NASA([298.00, 1000.00],
                     [-2.39195145E-01,  2.71965302E-02, -1.96479590E-05,
                       6.17925647E-09, -1.84661314E-13, -5.60696357E+03,
                       2.67225219E-01]),
                NASA([1000.00, 2000.00],
                     [ 1.32714698E+01, -1.19649775E-02,  2.13410724E-05,
                      -1.13827464E-08,  2.03915294E-12, -9.25414727E+03,
                      -6.90961026E+01])))

species(name='C2H2X(64)',
        atoms='C:2 H:2 X:1',
        thermo=(NASA([298.00, 1000.00],
                     [-2.04785706E+00,  3.38148654E-02, -4.45775300E-05,
                       3.08318279E-08, -8.56901355E-12, -2.28268064E+03,
                       6.64469050E+00]),
                NASA([1000.00, 2000.00],
                     [ 9.42830381E+00, -6.48123487E-03,  1.15879773E-05,
                      -6.19494276E-09,  1.11218928E-12, -5.01217502E+03,
                      -5.04945175E+01])))

species(name='H2_ads(68)',
        atoms='H:2 X:1',
        thermo=(NASA([298.00, 1000.00],
                     [ 3.78935111E+00,  1.10148021E-03, -2.31320100E-06,
                       2.11937826E-09, -6.31350224E-13, -1.86700333E+03,
                      -1.00616465E+01]),
                NASA([1000.00, 2000.00],
                     [ 4.06700165E+00, -5.01780079E-04,  6.70738856E-07,
                      -1.79170942E-10,  8.86886631E-15, -1.89107687E+03,
                      -1.12621699E+01])))

species(name='C2H3X(72)',
        atoms='C:2 H:3 X:1',
        thermo=(NASA([298.00, 1000.00],
                     [ 1.57603104E-01,  2.34293413E-02, -1.86683661E-05,
                       7.29234370E-09, -8.79008671E-13, -1.12523534E+04,
                      -1.73582278E+00]),
                NASA([1000.00, 2000.00],
                     [ 1.13050336E+01, -9.40622931E-03,  1.67935678E-05,
                      -8.96901500E-09,  1.60855621E-12, -1.42348165E+04,
                      -5.88363790E+01])))

species(name='CH4X(80)',
        atoms='C:1 H:4 X:1',
        thermo=(NASA([298.00, 1000.00],
                     [ 5.26247002E+00, -7.42703413E-03,  3.36472336E-05,
                      -3.29401150E-08,  1.10259250E-11, -1.16038320E+04,
                      -1.00920541E+01]),
                NASA([1000.00, 2000.00],
                     [ 9.54981008E+00, -1.03719404E-02,  1.83183536E-05,
                      -9.63332916E-09,  1.70558531E-12, -1.32717208E+04,
                      -3.45374475E+01])))

species(name='C2H6X(82)',
        atoms='C:2 H:6 X:1',
        thermo=(NASA([298.00, 1000.00],
                     [ 3.19974851E+00,  7.93841719E-03,  2.69413164E-05,
                      -3.53453703E-08,  1.32207821E-11, -1.45807566E+04,
                      -1.67952705E+00]),
                NASA([1000.00, 2000.00],
                     [ 1.59169609E+01, -1.75616860E-02,  3.12255463E-05,
                      -1.65874969E-08,  2.96156965E-12, -1.86136199E+04,
                      -6.98567509E+01])))

species(name='C3H5X(85)',
        atoms='C:3 H:5 X:1',
        thermo=(NASA([100.00, 946.03],
                     [ 3.27689253E+00,  3.84303847E-03,  5.69835401E-05,
                      -7.61313850E-08,  2.92917485E-11, -8.99735974E+03,
                      -1.34282450E+01]),
                NASA([946.03, 5000.00],
                     [ 8.81706372E+00,  1.11129322E-02, -3.21281122E-06,
                       5.86591229E-10, -4.55834682E-14, -1.14191305E+04,
                      -4.71085119E+01])))

species(name='CH_ads(91)',
        atoms='C:1 H:1 X:1',
        thermo=(NASA([298.00, 1000.00],
                     [-3.00950779E+00,  3.02193341E-02, -4.99546294E-05,
                       3.99478464E-08, -1.23021593E-11, -3.13353859E+03,
                       1.12314464E+01]),
                NASA([1000.00, 2000.00],
                     [ 4.88482023E+00, -2.70846119E-03,  4.84648118E-06,
                      -2.58513645E-09,  4.63180319E-13, -4.75082800E+03,
                      -2.67870735E+01])))

species(name='C4H6X(96)',
        atoms='C:4 H:6 X:1',
        thermo=(NASA([100.00, 1023.17],
                     [ 2.40014322E+00,  2.85396048E-02,  6.30703076E-07,
                      -1.80017709E-08,  8.10084465E-12, -3.79510022E+03,
                      -7.28045747E+00]),
                NASA([1023.17, 5000.00],
                     [ 8.63170755E+00,  1.90458832E-02, -7.24837792E-06,
                       1.33445680E-09, -9.39704356E-14, -5.84853829E+03,
                      -4.12900231E+01])))

species(name='C3H4X(100)',
        atoms='C:3 H:4 X:1',
        thermo=(NASA([100.00, 935.98],
                     [ 3.57494257E+00, -8.24245875E-03,  1.00364262E-04,
                      -1.24030274E-07,  4.69256014E-11, -1.49757546E+03,
                      -9.73433811E+00]),
                NASA([935.98, 5000.00],
                     [ 9.69062724E+00,  1.06601970E-02, -2.10792651E-06,
                       3.67697879E-10, -3.28008295E-14, -4.61523033E+03,
                      -4.93731716E+01])))

species(name='C4H6X(126)',
        atoms='C:4 H:6 X:1',
        thermo=(NASA([100.00, 948.80],
                     [ 2.81042399E+00,  9.74007030E-03,  7.48736354E-05,
                      -1.02008263E-07,  3.92840245E-11, -6.27426560E+03,
                      -5.80377810E+00]),
                NASA([948.80, 5000.00],
                     [ 1.04720265E+01,  1.91373636E-02, -5.90392061E-06,
                       1.06796550E-09, -8.00301920E-14, -9.60499135E+03,
                      -5.22545812E+01])))

species(name='C4H7X(128)',
        atoms='C:4 H:7 X:1',
        thermo=(NASA([100.00, 947.75],
                     [ 2.86443068E+00,  8.12921682E-03,  7.59618652E-05,
                      -1.03619921E-07,  4.00701955E-11, -8.09860702E+03,
                      -2.40048015E+00]),
                NASA([947.75, 5000.00],
                     [ 1.10488776E+01,  1.63915684E-02, -4.86289756E-06,
                       8.89653791E-10, -6.85145842E-14, -1.15723859E+04,
                      -5.15885474E+01])))

species(name='C3H3X(179)',
        atoms='C:3 H:3 X:1',
        thermo=(NASA([100.00, 925.84],
                     [ 3.40932888E+00,  9.19224784E-05,  5.78590963E-05,
                      -7.98175191E-08,  3.19417627E-11, -1.24569023E+04,
                      -9.96358713E+00]),
                NASA([925.84, 5000.00],
                     [ 1.06188795E+01,  2.07320769E-03,  9.74939039E-07,
                      -2.08481561E-10,  9.32030808E-15, -1.52117872E+04,
                      -5.18581515E+01])))

species(name='C4H5X(379)',
        atoms='C:4 H:5 X:1',
        thermo=(NASA([100.00, 944.15],
                     [ 2.57733066E+00,  1.99647980E-02,  2.77060348E-05,
                      -5.31548567E-08,  2.26470750E-11, -1.71257742E+04,
                      -6.22100751E+00]),
                NASA([944.15, 5000.00],
                     [ 1.14787039E+01,  1.07754041E-02, -3.00896794E-06,
                       5.29907082E-10, -4.04610200E-14, -2.00778803E+04,
                      -5.53857386E+01])))

#-------------------------------------------------------------------------------
# Reaction data
#-------------------------------------------------------------------------------
#  Reaction index: Chemkin #1; RMG #42
#  Template reaction: Surface_Adsorption_Dissociative
#  Flux pairs: C2H4(2), C2H3X(37); X(1), HX(5); X(1), HX(5);
#  Estimated using an average for rate rule [C-H;VacantSite1;VacantSite2]
#  Euclidian distance = 0
#  Multiplied by reaction path degeneracy 4.0
#  family: Surface_Adsorption_Dissociative

# surface1 Reaction 1
surface_reaction('X(1) + X(1) + C2H4(2) <=> HX(5) + C2H3X(37)', stick(3.906000e-01, 0.394, 17.995))
#  Reaction index: Chemkin #2; RMG #74
#  Template reaction: Surface_Dissociation
#  Flux pairs: C2H3X(37), C2H2X(64); C2H3X(37), HX(5);
#  Matched reaction 91 X_4 + CHCH2X <=> HX_5 + CCH2X in Surface_Dissociation/training
#  This reaction matched rate rule [*-CH=C;VacantSite]
#  family: Surface_Dissociation
#  metal: None
#  facet: None
#  site: None

# surface1 Reaction 2
surface_reaction('X(1) + C2H3X(37) <=> HX(5) + C2H2X(64)', [1.000000e+21, 0.0, 6.918])
#  Reaction index: Chemkin #3; RMG #70
#  Template reaction: Surface_Adsorption_Dissociative
#  Flux pairs: H2(17), HX(5); X(1), HX(5); X(1), HX(5);
#  Matched reaction 1 H2 + X_3 + X_4 <=> HX_3 + HX_4 in Surface_Adsorption_Dissociative/training
#  This reaction matched rate rule [H2;VacantSite1;VacantSite2]
#  family: Surface_Adsorption_Dissociative
#  metal: None

# surface1 Reaction 3
surface_reaction('X(1) + X(1) + H2(17) <=> HX(5) + HX(5)', stick(3.000000e-02, 0.0, 1.195))
#  Reaction index: Chemkin #4; RMG #79
#  Template reaction: Surface_Abstraction_vdW
#  Flux pairs: C2H2X(64), C2H3X(37); H2_ads(68), HX(5);
#  Estimated using template [AdsorbateVdW;*=C=R] for rate rule [H-H;*=C=R]
#  Euclidian distance = 1.0
#  Multiplied by reaction path degeneracy 2.0
#  family: Surface_Abstraction_vdW

# surface1 Reaction 4
surface_reaction('H2_ads(68) + C2H2X(64) <=> HX(5) + C2H3X(37)', [1.340000e+20, -0.222, 19.5],
                 options='duplicate')
#  Reaction index: Chemkin #5; RMG #98
#  Template reaction: Surface_Adsorption_vdW
#  Flux pairs: X(1), H2_ads(68); H2(17), H2_ads(68);
#  Estimated using template [Adsorbate;VacantSite] for rate rule [H2;VacantSite]
#  Euclidian distance = 2.0
#  family: Surface_Adsorption_vdW

# surface1 Reaction 5
surface_reaction('X(1) + H2(17) <=> H2_ads(68)', stick(7.973000e-01, 0.0, 0.0))
#  Reaction index: Chemkin #6; RMG #100
#  Template reaction: Surface_Abstraction_vdW
#  Flux pairs: C2H2X(64), C2H3X(37); H2_ads(68), HX(5);
#  Estimated using template [AdsorbateVdW;*=C=R] for rate rule [H-H;*=C=R]
#  Euclidian distance = 1.0
#  Multiplied by reaction path degeneracy 2.0
#  family: Surface_Abstraction_vdW

# surface1 Reaction 6
surface_reaction('H2_ads(68) + C2H2X(64) <=> HX(5) + C2H3X(37)', [1.340000e+20, -0.222, 19.5],
                 options='duplicate')
#  Reaction index: Chemkin #7; RMG #46
#  Template reaction: Surface_Adsorption_Dissociative
#  Flux pairs: C4H8-1(3), C2H5X(42); X(1), C2H3X(37); X(1), C2H3X(37);
#  Estimated using an average for rate rule [C-C;VacantSite1;VacantSite2]
#  Euclidian distance = 0
#  family: Surface_Adsorption_Dissociative

# surface1 Reaction 7
surface_reaction('X(1) + X(1) + C4H8-1(3) <=> C2H3X(37) + C2H5X(42)', stick(5.000000e-02, 0.0, 62.137))
#  Reaction index: Chemkin #8; RMG #60
#  Template reaction: Surface_EleyRideal_Addition_Multiple_Bond
#  Flux pairs: C2H4(2), C2H5X(42); HX(5), C2H5X(42);
#  Estimated using template [Adsorbate1;CH2=CH2] for rate rule [*H;CH2=CH2]
#  Euclidian distance = 1.0
#  Multiplied by reaction path degeneracy 2.0
#  family: Surface_EleyRideal_Addition_Multiple_Bond

# surface1 Reaction 8
surface_reaction('HX(5) + C2H4(2) <=> C2H5X(42)', stick(1.000000e-01, 0.0, 17.462))
#  Reaction index: Chemkin #9; RMG #56
#  Template reaction: Surface_Adsorption_Dissociative_Double
#  Flux pairs: C4H8-2(4), C2H4X(52); X(1), C2H4X(52); X(1), C2H4X(52);
#  From training reaction 1 used for CC;VacantSite1;VacantSite2
#  Exact match found for rate rule [CC;VacantSite1;VacantSite2]
#  Euclidian distance = 0
#  family: Surface_Adsorption_Dissociative_Double

# surface1 Reaction 9
surface_reaction('X(1) + X(1) + C4H8-2(4) <=> C2H4X(52) + C2H4X(52)', stick(1.000000e-01, 0.0, 57.651))
#  Reaction index: Chemkin #10; RMG #80
#  Template reaction: Surface_Dissociation_Beta
#  Flux pairs: HX(5), C2H4X(52); C2H3X(37), C2H4X(52);
#  Estimated using template [*-C=;H-*] for rate rule [*-C=C;H-*]
#  Euclidian distance = 1.0
#  family: Surface_Dissociation_Beta

# surface1 Reaction 10
surface_reaction('HX(5) + C2H3X(37) <=> X(1) + C2H4X(52)', [7.620000e+20, 0.0, 20.985])
#  Reaction index: Chemkin #11; RMG #83
#  Template reaction: Surface_Abstraction_Beta
#  Flux pairs: C2H4X(52), C2H3X(37); C2H2X(64), C2H3X(37);
#  Estimated using template [Combined;Adsorbate1] for rate rule [C-H;Adsorbate1]
#  Euclidian distance = 1.0
#  Multiplied by reaction path degeneracy 3.0
#  family: Surface_Abstraction_Beta

# surface1 Reaction 11
surface_reaction('C2H2X(64) + C2H4X(52) <=> C2H3X(37) + C2H3X(37)', [9.600000e+21, 0.0, 34.624],
                 options='duplicate')
#  Reaction index: Chemkin #12; RMG #103
#  Template reaction: Surface_Dissociation
#  Flux pairs: C2H5X(42), C2H4X(52); C2H5X(42), HX(5);
#  From training reaction 78 used for *-CH2C;VacantSite
#  Exact match found for rate rule [*-CH2C;VacantSite]
#  Euclidian distance = 0
#  Multiplied by reaction path degeneracy 2.0
#  family: Surface_Dissociation

# surface1 Reaction 12
surface_reaction('X(1) + C2H5X(42) <=> HX(5) + C2H4X(52)', [4.511740e+21, 0.0, 15.249])
#  Reaction index: Chemkin #13; RMG #109
#  Template reaction: Surface_Abstraction_vdW
#  Flux pairs: C2H4X(52), C2H5X(42); H2_ads(68), HX(5);
#  Estimated using template [AdsorbateVdW;*=C-2R] for rate rule [H-H;*=C-2R]
#  Euclidian distance = 1.0
#  Multiplied by reaction path degeneracy 2.0
#  family: Surface_Abstraction_vdW

# surface1 Reaction 13
surface_reaction('H2_ads(68) + C2H4X(52) <=> HX(5) + C2H5X(42)', [2.300000e+19, -0.721, 20.3])
#  Reaction index: Chemkin #14; RMG #114
#  Template reaction: Surface_Abstraction_Beta
#  Flux pairs: C2H4X(52), C2H5X(42); C2H4X(52), C2H3X(37);
#  Estimated using template [Combined;Adsorbate1] for rate rule [C-H;Adsorbate1]
#  Euclidian distance = 1.0
#  Multiplied by reaction path degeneracy 3.0
#  family: Surface_Abstraction_Beta

# surface1 Reaction 14
surface_reaction('C2H4X(52) + C2H4X(52) <=> C2H3X(37) + C2H5X(42)', [9.600000e+21, 0.0, 26.961])
#  Reaction index: Chemkin #15; RMG #123
#  Template reaction: Surface_Abstraction
#  Flux pairs: C2H4X(52), C2H5X(42); C2H3X(37), C2H2X(64);
#  Estimated using average of templates [Abstracting;*-C-H] + [C=*;*R-H] for rate rule [C=*;*-C-H]
#  Euclidian distance = 2.0
#  family: Surface_Abstraction

# surface1 Reaction 15
surface_reaction('C2H3X(37) + C2H4X(52) <=> C2H2X(64) + C2H5X(42)', [2.141079e+21, 0.051, 2.271])
#  Reaction index: Chemkin #16; RMG #145
#  Template reaction: Surface_Abstraction_Beta
#  Flux pairs: C2H4X(52), C2H3X(37); C2H2X(64), C2H3X(37);
#  Estimated using template [Combined;Adsorbate1] for rate rule [C-H;Adsorbate1]
#  Euclidian distance = 1.0
#  Multiplied by reaction path degeneracy 3.0
#  family: Surface_Abstraction_Beta

# surface1 Reaction 16
surface_reaction('C2H2X(64) + C2H4X(52) <=> C2H3X(37) + C2H3X(37)', [9.600000e+21, 0.0, 34.624],
                 options='duplicate')
#  Reaction index: Chemkin #17; RMG #90
#  Template reaction: Surface_Dissociation_Beta
#  Flux pairs: HX(5), C2H3X(72); C2H2X(64), C2H3X(72);
#  Estimated using template [*=C;H-*] for rate rule [*=C=C;H-*]
#  Euclidian distance = 1.0
#  family: Surface_Dissociation_Beta

# surface1 Reaction 17
surface_reaction('HX(5) + C2H2X(64) <=> X(1) + C2H3X(72)', [3.799000e+21, 0.0, 52.117])
#  Reaction index: Chemkin #18; RMG #91
#  Template reaction: Surface_Abstraction_Beta
#  Flux pairs: C2H3X(72), C2H3X(37); C2H2X(64), C2H2X(64);
#  Estimated using template [Combined;Adsorbate1] for rate rule [C-H;Adsorbate1]
#  Euclidian distance = 1.0
#  Multiplied by reaction path degeneracy 3.0
#  family: Surface_Abstraction_Beta

# surface1 Reaction 18