units(length='cm', time='s', quantity='mol', act_energy='kcal/mol')

ideal_gas(name='gas',
          elements="H D T C Ci O Oi N Ne Ar He Si S F Cl Br I X",
          species="""n-heptane   Ar          He          Ne
                     N2          C2H4(2)     C4H8-1(3)   C4H8-2(4)
                     H2(17)      C4H6(19)    C3H6(34)    C2H6(148)
                     CH4(169)    C5H8c(637)  C5H10(652)  S(3064)
                     C3H8(3202)  C4H8(3205)""",
          transport='Mix',
          initial_state=state(temperature=300.0, pressure=OneAtm))

ideal_interface(name='surface1',
                elements="H D T C Ci O Oi N Ne Ar He Si S F Cl Br I X",
                species="""X(1)        HX(5)       C2H3X(45)   C2H4X(47)
                          allylX(48)  CH3X(49)    C2H5X(50)   C4H7X(51)
                          C4H7X(52)   C4H7X(53)   C4H7X(54)   C4H8X(56)
                          C3H5X(57)   C2H2X(74)   H2X(78)     C4H6X(80)
                          C4H5X(84)   C4H5X(85)   C3H4X(86)   C6H9X(97)
                          C6H8X(102)  C6H8X(103)  SX(107)     SX(131)
                          C6H7X(140)  C6H7X(141)  CH4X(147)   C2H6X(149)
                          C3H6X(150)  C3H7X(153)  SX(154)     SX(155)
                          C5H8X(158)  C5H8X(161)  C3H5X(164)  C3H8X(166)
                          C5H6X(170)  C6H7X(171)  C6H7X(172)  C6H9X(173)
                          C8H9X(200)  C6H8X(226)  C8H9X(272)  C8H9X(274)
                          C5H8X(384)  SX(395)     C5H7X(401)  C5H6X(484)
                          C5H6X(485)  C6H7X(486)  CHX(609)    C3H3X(610)
                          C5H7X(612)  C7H9X(613)  C5H9X(632)  C5H7X(649)
                          C6H9X(692)  C7H8X(698)  C6H8X(713)  C5H7X(843)
                          C3H7X(902)  SX(1008)    SX(1009)    SX(1235)
                          SX(1236)    SX(1237)    SX(1238)    SX(1239)
                          SX(1561)    SX(1562)    SX(1563)    SX(2063)
                          SX(2923)    SX(3048)    SX(3049)    SX(3062)
                          SX(3101)    SX(3104)    SX(3362)    SX(3670)
                          SX(3671)    SX(3672)    SX(4306)    SX(5121)
                          SX(5682)    SX(5975)    SX(6676)    SX(7153)
                          SX(8233)""",
                site_density=2.483e-09,
                phases="gas",
          reactions='all',
                initial_state=state(temperature=300.0, pressure=OneAtm))

#-------------------------------------------------------------------------------
# Element data
#-------------------------------------------------------------------------------

element(symbol='Ci', atomic_mass=13.003)
element(symbol='D', atomic_mass=2.014)
element(symbol='Oi', atomic_mass=17.999)
element(symbol='T', atomic_mass=3.016)
element(symbol='X', atomic_mass=195.083)
#-------------------------------------------------------------------------------
# Species data
#-------------------------------------------------------------------------------

species(name='n-heptane',
        atoms='C:7 H:16',
        thermo=(NASA([100.00, 1262.73],
                     [-2.91681405E-03,  7.69373649E-02, -3.48025563E-05,
                       1.86095180E-09,  2.01573617E-12, -2.57829342E+04,
                       3.00312148E+01]),
                NASA([1262.73, 5000.00],
                     [ 1.38377915E+01,  4.85945016E-02, -1.95474548E-05,
                       3.52837178E-09, -2.39064676E-13, -3.05141556E+04,
                      -4.48642836E+01])),
        transport=gas_transport(geom='nonlinear',
                                diam=6.366,
                                well_depth=402.997))

species(name='Ar',
        atoms='Ar:1',
        thermo=(NASA([200.00, 1000.00],
                     [ 2.50000000E+00,  0.00000000E+00,  0.00000000E+00,
                       0.00000000E+00,  0.00000000E+00, -7.45375000E+02,
                       4.37967000E+00]),
                NASA([1000.00, 6000.00],
                     [ 2.50000000E+00,  0.00000000E+00,  0.00000000E+00,
                       0.00000000E+00,  0.00000000E+00, -7.45375000E+02,
                       4.37967000E+00])),
        transport=gas_transport(geom='atom',
                                diam=3.33,
                                well_depth=136.501))

species(name='He',
        atoms='He:1',
        thermo=(NASA([200.00, 1000.00],
                     [ 2.50000000E+00,  0.00000000E+00,  0.00000000E+00,
                       0.00000000E+00,  0.00000000E+00, -7.45375000E+02,
                       9.28724000E-01]),
                NASA([1000.00, 6000.00],
                     [ 2.50000000E+00,  0.00000000E+00,  0.00000000E+00,
                       0.00000000E+00,  0.00000000E+00, -7.45375000E+02,
                       9.28724000E-01])),
        transport=gas_transport(geom='atom',
                                diam=2.576,
                                well_depth=10.2))

species(name='Ne',
        atoms='Ne:1',
        thermo=(NASA([200.00, 1000.00],
                     [ 2.50000000E+00,  0.00000000E+00,  0.00000000E+00,
                       0.00000000E+00,  0.00000000E+00, -7.45375000E+02,
                       3.35532000E+00]),
                NASA([1000.00, 6000.00],
                     [ 2.50000000E+00,  0.00000000E+00,  0.00000000E+00,
                       0.00000000E+00,  0.00000000E+00, -7.45375000E+02,
                       3.35532000E+00])),
        transport=gas_transport(geom='atom',
                                diam=3.758,
                                well_depth=148.6))

species(name='N2',
        atoms='N:2',
        thermo=(NASA([200.00, 1000.00],
                     [ 3.53101000E+00, -1.23661000E-04, -5.02999000E-07,
                       2.43531000E-09, -1.40881000E-12, -1.04698000E+03,
                       2.96747000E+00]),
                NASA([1000.00, 6000.00],
                     [ 2.95258000E+00,  1.39690000E-03, -4.92632000E-07,
                       7.86010000E-11, -4.60755000E-15, -9.23949000E+02,
                       5.87189000E+00])),
        transport=gas_transport(geom='linear',
                                diam=3.621,
                                well_depth=97.53,
                                polar=1.76,
                                rot_relax=4.0))

species(name='C2H4(2)',
        atoms='C:2 H:4',
        thermo=(NASA([100.00, 979.36],
                     [ 3.97471606E+00, -4.75844285E-03,  4.16783770E-05,
                      -4.51392516E-08,  1.54224761E-11,  4.91540746E+03,
                       3.62430844E+00]),
                NASA([979.36, 5000.00],
                     [ 3.55660610E+00,  1.10627464E-02, -4.17019079E-06,
                       7.85586770E-10, -5.70060829E-14,  4.32046489E+03,
                       2.17719479E+00])),
        transport=gas_transport(geom='nonlinear',
                                diam=3.971,
                                well_depth=280.8,
                                rot_relax=1.5))

species(name='C4H8-1(3)',
        atoms='C:4 H:8',
        thermo=(NASA([100.00, 1007.28],
                     [ 2.58772906E+00,  2.32777969E-02,  1.93412349E-05,
                      -3.55496333E-08,  1.36906009E-11, -1.91872926E+03,
                       1.45750618E+01]),
                NASA([1007.28, 5000.00],
                     [ 7.20517168E+00,  2.36361568E-02, -9.03150028E-06,
                       1.65392666E-09, -1.16019260E-13, -3.79733937E+03,
                      -1.24426257E+01])),
        transport=gas_transport(geom='nonlinear',
                                diam=5.176,
                                well_depth=357.002,
                                rot_relax=1.0))

species(name='C4H8-2(4)',
        atoms='C:4 H:8',
        thermo=(NASA([100.00, 1157.79],
                     [ 2.51998327E+00,  2.76812799E-02,  9.43783469E-07,
                      -1.25009101E-08,  4.67144666E-12, -3.34374767E+03,
                       1.30195623E+01]),
                NASA([1157.79, 5000.00],
                     [ 6.04225708E+00,  2.60072350E-02, -1.04843374E-05,
                       1.90880922E-09, -1.30600505E-13, -4.86276511E+03,
                      -7.52715109E+00])),
        transport=gas_transport(geom='nonlinear',
                                diam=5.289,
                                well_depth=359.053))

species(name='H2(17)',
        atoms='H:2',
        thermo=(NASA([100.00, 1959.08],
                     [ 3.43536412E+00,  2.12710353E-04, -2.78625043E-07,
                       3.40267167E-10, -7.76031998E-14, -1.03135984E+03,
                      -3.90841732E+00]),
                NASA([1959.08, 5000.00],
                     [ 2.78816583E+00,  5.87640942E-04,  1.59010417E-07,
                      -5.52739026E-11,  4.34310984E-15, -5.96144270E+02,
                       1.12732655E-01])),
        transport=gas_transport(geom='linear',
                                diam=2.833,
                                well_depth=59.7))

species(name='C4H6(19)',
        atoms='C:4 H:6',
        thermo=(NASA([100.00, 946.05],
                     [ 2.80599310E+00,  1.02584471E-02,  6.17260255E-05,
                      -9.01642687E-08,  3.59116961E-11,  1.16584972E+04,
                       1.20621434E+01]),
                NASA([946.05, 5000.00],
                     [ 1.24693720E+01,  1.00553901E-02, -2.41206872E-06,
                       4.57077303E-10, -3.93160571E-14,  8.01077795E+03,
                      -4.36374720E+01])),
        transport=gas_transport(geom='nonlinear',
                                diam=5.18,
                                well_depth=357.002,
                                rot_relax=1.0))

species(name='C3H6(34)',
        atoms='C:3 H:6',
        thermo=(NASA([100.00, 983.75],
                     [ 3.31912102E+00,  8.17958674E-03,  3.34736123E-05,
                      -4.36193684E-08,  1.58213364E-11,  7.49325328E+02,
                       9.54025058E+00]),
                NASA([983.75, 5000.00],
                     [ 5.36755173E+00,  1.70743019E-02, -6.35107626E-06,
                       1.16619529E-09, -8.27620279E-14, -4.87138326E+02,
                      -4.54467529E+00])),
        transport=gas_transport(geom='nonlinear',
                                diam=4.982,
                                well_depth=266.8,
                                rot_relax=1.0))

species(name='C2H6(148)',
        atoms='C:2 H:6',
        thermo=(NASA([100.00, 1012.42],
                     [ 3.72239291E+00,  1.65083841E-03,  3.44175530E-05,
                      -3.76858229E-08,  1.24450657E-11, -1.15575901E+04,
                       4.68247999E+00]),
                NASA([1012.42, 5000.00],
                     [ 2.82848257E+00,  1.73040568E-02, -6.73334245E-06,
                       1.23742024E-09, -8.65676410E-14, -1.19978080E+04,
                       5.93811707E+00])),
        transport=gas_transport(geom='nonlinear',
                                diam=4.302,
                                well_depth=252.3,
                                rot_relax=1.5))

species(name='CH4(169)',
        atoms='C:1 H:4',
        thermo=(NASA([100.00, 1084.12],
                     [ 4.20541524E+00, -5.35557362E-03,  2.51123265E-05,
                      -2.13762843E-08,  5.97523937E-12, -1.01619433E+04,
                      -9.21279283E-01]),
                NASA([1084.12, 5000.00],
                     [ 9.08265721E-01,  1.14540858E-02, -4.57173828E-06,
                       8.29191671E-10, -5.66314895E-14, -9.71997444E+03,
                       1.39930944E+01])),
        transport=gas_transport(geom='nonlinear',
                                diam=3.746,
                                well_depth=141.4,
                                polar=2.6,
                                rot_relax=13.0))

species(name='C5H8c(637)',
        atoms='C:5 H:8',
        thermo=(NASA([100.00, 1004.86],
                     [ 1.98273955E+00,  3.49998332E-02,  6.98515281E-06,
                      -3.05031334E-08,  1.32246652E-11,  6.96521034E+03,
                       1.60818191E+01]),
                NASA([1004.86, 5000.00],
                     [ 1.01246420E+01,  2.42323877E-02, -9.24886971E-06,
                       1.70115950E-09, -1.20059732E-13,  4.23624320E+03,
                      -2.86745770E+01])),
        transport=gas_transport(geom='nonlinear',
                                diam=5.354,
                                well_depth=369.973))

species(name='C5H10(652)',
        atoms='C:5 H:10',
        thermo=(NASA([100.00, 1065.88],
                     [ 1.83973645E+00,  3.88165649E-02,  3.95415802E-06,
                      -2.48620336E-08,  1.01608534E-11, -6.45875726E+03,
                       1.88194915E+01]),
                NASA([1065.88, 5000.00],
                     [ 8.87931728E+00,  3.15047857E-02, -1.26438740E-05,
                       2.33666558E-09, -1.63001335E-13, -9.04475166E+03,
                      -2.06827600E+01])),
        transport=gas_transport(geom='nonlinear',
                                diam=5.558,
                                well_depth=369.729))

species(name='S(3064)',
        atoms='C:6 H:12',
        thermo=(NASA([100.00, 1083.88],
                     [ 1.36789859E+00,  4.60332170E-02,  1.03872042E-05,
                      -3.61548644E-08,  1.41144370E-11, -9.21215455E+03,
                       2.36685346E+01]),
                NASA([1083.88, 5000.00],
                     [ 1.07762218E+01,  3.82405519E-02, -1.60946813E-05,
                       3.05489613E-09, -2.16276948E-13, -1.28334192E+04,
                      -2.97757608E+01])),
        transport=gas_transport(geom='nonlinear',
                                diam=5.876,
                                well_depth=387.836))

species(name='C3H8(3202)',
        atoms='C:3 H:8',
        thermo=(NASA([100.00, 989.99],
                     [ 3.06336167E+00,  1.29214561E-02,  3.47032808E-05,
                      -4.70946154E-08,  1.71384141E-11, -1.43905789E+04,
                       1.07835592E+01]),
                NASA([989.99, 5000.00],
                     [ 5.60440043E+00,  2.19528785E-02, -8.22080610E-06,
                       1.50103993E-09, -1.05635358E-13, -1.58394038E+04,
                      -6.22623300E+00])),
        transport=gas_transport(geom='nonlinear',
                                diam=4.982,
                                well_depth=266.8,
                                rot_relax=1.0))

species(name='C4H8(3205)',
        atoms='C:4 H:8',
        thermo=(NASA([100.00, 1061.33],
                     [ 2.52504770E+00,  2.64752782E-02,  7.08359238E-06,
                      -2.07731462E-08,  8.00430055E-12, -4.02607130E+03,
                       1.28857274E+01]),
                NASA([1061.33, 5000.00],
                     [ 6.48672669E+00,  2.49943921E-02, -9.83283171E-06,
                       1.79343299E-09, -1.24008235E-13, -5.62452310E+03,
                      -1.00316397E+01])),
        transport=gas_transport(geom='nonlinear',
                                diam=5.238,
                                well_depth=351.146))

species(name='X(1)',
        atoms='X:1',
        thermo=(NASA([100.00, 1554.80],
                     [ 7.10139498E-03, -4.25619522E-05,  8.98533016E-08,
                      -7.80193649E-11,  2.32465471E-14, -8.76101712E-01,
                      -3.11211229E-02]),
                NASA([1554.80, 5000.00],
                     [ 1.60299900E-01, -2.52235409E-04,  1.14181275E-07,
                      -1.21471653E-11,  3.85790025E-16, -7.08100885E+01,
                      -9.09527530E-01])))

species(name='HX(5)',
        atoms='H:1 X:1',
        thermo=(NASA([100.00, 952.91],
                     [-3.80965452E-01,  5.47228709E-03,  2.60912778E-06,
                      -9.64961980E-09,  4.63946753E-12, -4.98207924E+03,
                       1.01725550E+00]),
                NASA([952.91, 5000.00],
                     [ 2.80339655E+00, -5.41047017E-04,  4.99507978E-07,
                      -7.54963647E-11,  3.06772366E-15, -5.92282866E+03,
                      -1.59436787E+01])))

species(name='C2H3X(45)',
        atoms='C:2 H:3 X:1',
        thermo=(NASA([100.00, 928.62],
                     [ 3.83091018E+00, -8.76381562E-03,  6.97956896E-05,
                      -8.67969174E-08,  3.33218121E-11, -5.54420986E+02,
                      -1.81151753E+01]),
                NASA([928.62, 5000.00],
                     [ 8.78054562E+00,  1.92497720E-03,  8.25825014E-07,
                      -1.63749818E-10,  5.71728318E-15, -2.85382411E+03,
                      -4.90588618E+01])))

species(name='C2H4X(47)',
        atoms='C:2 H:4 X:1',
        thermo=(NASA([100.00, 940.14],
                     [ 3.88321285E+00, -7.62082387E-03,  6.32717827E-05,
                      -7.52954866E-08,  2.79403814E-11, -1.38253630E+03,
                      -1.23955321E+01]),
                NASA([940.14, 5000.00],
                     [ 6.60927305E+00,  6.91828500E-03, -1.62849563E-06,
                       2.98608300E-10, -2.53071850E-14, -3.05021006E+03,
                      -3.15221684E+01])))

species(name='allylX(48)',
        atoms='C:3 H:5 X:1',
        thermo=(NASA([100.00, 937.34],
                     [ 3.44148119E+00, -3.47700003E-03,  8.25933681E-05,
                      -1.05556823E-07,  4.04445066E-11, -1.31849043E+03,
                      -6.88846669E+00]),
                NASA([937.34, 5000.00],
                     [ 9.98148902E+00,  8.92268754E-03, -1.75442587E-06,
                       3.12285771E-10, -2.84156572E-14, -4.31528807E+03,
                      -4.74626902E+01])))

species(name='CH3X(49)',
        atoms='C:1 H:3 X:1',
        thermo=(NASA([100.00, 848.30],
                     [-1.21090496E+00,  2.92390681E-02, -4.49011079E-05,
                       3.86009808E-08, -1.30361041E-11, -3.27797329E+03,
                       6.80939750E+00]),
                NASA([848.30, 5000.00],
                     [ 1.62290877E+00,  1.12987268E-02, -5.08316908E-06,
                       9.46833581E-10, -6.42885536E-14, -3.59403820E+03,
                      -5.42501059E+00])))

species(name='C2H5X(50)',
        atoms='C:2 H:5 X:1',
        thermo=(NASA([100.00, 803.81],
                     [-1.64625424E+00,  3.89626488E-02, -4.31128887E-05,
                       2.97076939E-08, -8.80222915E-12, -7.26164831E+03,
                       9.27323637E+00]),
                NASA([803.81, 5000.00],
                     [ 1.97598112E+00,  2.09382766E-02, -9.47916922E-06,
                       1.81392948E-09, -1.27206354E-13, -7.84399709E+03,
                      -7.41107956E+00])))

species(name='C4H7X(51)',
        atoms='C:4 H:7 X:1',
        thermo=(NASA([100.00, 971.02],
                     [ 2.64365035E+00,  1.79007589E-02,  4.24443189E-05,
                      -6.44028479E-08,  2.49593993E-11, -6.22125151E+03,
                      -6.69991651E+00]),
                NASA([971.02, 5000.00],
                     [ 9.25871667E+00,  2.04064152E-02, -7.39143670E-06,
                       1.37021231E-09, -9.94133357E-14, -8.90873564E+03,
                      -4.56426102E+01])))

species(name='C4H7X(52)',
        atoms='C:4 H:7 X:1',
        thermo=(NASA([100.00, 986.67],
                     [ 2.45798205E+00,  2.47217336E-02,  2.01285964E-05,
                      -4.02735564E-08,  1.62485845E-11,  2.18093553E+03,
                      -5.12991781E+00]),
                NASA([986.67, 5000.00],
                     [ 8.87898065E+00,  2.09043993E-02, -7.83851223E-06,
                       1.44076477E-09, -1.02346878E-13, -1.67420575E+02,
                      -4.15007572E+01])))

species(name='C4H7X(53)',
        atoms='C:4 H:7 X:1',
        thermo=(NASA([100.00, 965.06],
                     [ 2.56877619E+00,  1.97500674E-02,  3.72961301E-05,
                      -6.04017092E-08,  2.39989018E-11, -8.32438941E+03,
                      -8.56564322E+00]),
                NASA([965.06, 5000.00],
                     [ 9.89778724E+00,  1.86142959E-02, -6.38884453E-06,
                       1.17309353E-09, -8.55406646E-14, -1.11006806E+04,
                      -5.07182348E+01])))

species(name='C4H7X(54)',
        atoms='C:4 H:7 X:1',
        thermo=(NASA([100.00, 949.35],
                     [ 2.54254539E+00,  1.77389010E-02,  4.93877612E-05,
                      -7.72878178E-08,  3.10660019E-11, -7.09875611E+03,
                      -8.46783968E+00]),
                NASA([949.35, 5000.00],
                     [ 1.15220223E+01,  1.60005944E-02, -4.89823595E-06,
                       8.83972924E-10, -6.63710570E-14, -1.04302884E+04,
                      -5.98888028E+01])))

species(name='C4H8X(56)',
        atoms='C:4 H:8 X:1',
        thermo=(NASA([100.00, 1076.46],
                     [ 2.22987213E+00,  3.28680883E-02, -3.67129742E-06,
                      -1.27255696E-08,  5.73436008E-12, -5.14078037E+03,
                       6.98841371E+00]),
                NASA([1076.46, 5000.00],
                     [ 7.72832368E+00,  2.48501332E-02, -9.79663413E-06,
                       1.78091180E-09, -1.22693380E-13, -7.04377362E+03,
                      -2.32842382E+01])))

species(name='C3H5X(57)',
        atoms='C:3 H:5 X:1',
        thermo=(NASA([100.00, 939.06],
                     [ 3.23683359E+00,  3.73132320E-03,  6.01028900E-05,
                      -8.16245569E-08,  3.18536011E-11, -4.36766258E+03,
                      -1.35295467E+01]),
                NASA([939.06, 5000.00],
                     [ 9.70183185E+00,  9.48309646E-03, -2.25953763E-06,
                       3.98431327E-10, -3.27118882E-14, -7.04969151E+03,
                      -5.21282869E+01])))

species(name='C2H2X(74)',
        atoms='C:2 H:2 X:1',
        thermo=(NASA([100.00, 1146.89],
                     [-1.35665997E+00,  2.85338019E-02, -3.11240758E-05,
                       1.70134067E-08, -3.63322671E-12,  3.33657952E+03,
                       3.79543665E+00]),
                NASA([1146.89, 5000.00],
                     [ 4.86807469E+00,  6.82428196E-03, -2.73110334E-06,
                       5.09415334E-10, -3.57467832E-14,  1.90873324E+03,
                      -2.70885611E+01])))

species(name='H2X(78)',
        atoms='H:2 X:1',
        thermo=(NASA([100.00, 911.33],
                     [-1.27856724E+00,  3.68010102E-02, -8.90296992E-05,
                       8.91132730E-08, -3.14511582E-11, -1.33397682E+03,
                       1.13160562E+01]),
                NASA([911.33, 5000.00],
                     [ 6.45631937E-01,  6.69563800E-03, -3.82690860E-06,
                       7.04725296E-10, -4.41024465E-14, -7.85256799E+02,
                       7.14633349E+00])))

species(name='C4H6X(80)',
        atoms='C:4 H:6 X:1',
        thermo=(NASA([100.00, 934.93],
                     [ 2.71462354E+00,  7.38686366E-03,  8.33936533E-05,
                      -1.20490719E-07,  4.85412296E-11,  5.36055061E+03,
                      -3.95773030E+00]),
                NASA([934.93, 5000.00],
                     [ 1.55567206E+01,  5.85376435E-03,  1.61851595E-07,
                      -3.73860914E-11, -7.00424081E-15,  6.24965373E+02,
                      -7.75331355E+01])))

species(name='C4H5X(84)',
        atoms='C:4 H:5 X:1',
        thermo=(NASA([100.00, 936.52],
                     [ 2.68471723E+00,  1.36244496E-02,  5.32591849E-05,
                      -8.32912448E-08,  3.41499374E-11,  1.53880920E+03,
                      -1.06510487E+01]),
                NASA([936.52, 5000.00],
                     [ 1.29012266E+01,  8.96921861E-03, -1.71920076E-06,
                       2.89744517E-10, -2.58686364E-14, -2.08422974E+03,
                      -6.83963397E+01])))

species(name='C4H5X(85)',
        atoms='C:4 H:5 X:1',
        thermo=(NASA([100.00, 928.63],
                     [ 2.64232495E+00,  8.31109593E-03,  8.12146261E-05,
                      -1.21398701E-07,  4.98630759E-11,  6.72171795E+03,
                      -1.03932963E+01]),
                NASA([928.63, 5000.00],
                     [ 1.69490474E+01,  2.00818812E-03,  2.03468841E-06,
                      -4.02657023E-10,  1.85400094E-14,  1.67922358E+03,
                      -9.11990785E+01])))

species(name='C3H4X(86)',
        atoms='C:3 H:4 X:1',
        thermo=(NASA([100.00, 935.95],
                     [ 3.57515588E+00, -8.24509413E-03,  1.00374038E-04,
                      -1.24043750E-07,  4.69317056E-11,  4.18691449E+03,
                      -9.73509527E+00]),
                NASA([935.95, 5000.00],
                     [ 9.68996311E+00,  1.06613508E-02, -2.10860207E-06,
                       3.67859229E-10, -3.28143232E-14,  1.06954011E+03,
                      -4.93694478E+01])))

species(name='C6H9X(97)',
        atoms='C:6 H:9 X:1',
        thermo=(NASA([100.00, 999.55],
                     [ 1.67673103E+00,  3.46229627E-02,  3.95069460E-05,
                      -7.18132776E-08,  2.83897957E-11,  3.77540352E+03,
                       1.40551907E+00]),
                NASA([999.55, 5000.00],
                     [ 1.32935266E+01,  2.82673556E-02, -1.11810126E-05,
                       2.16230262E-09, -1.59014467E-13, -5.51735362E+02,
                      -6.46621998E+01])))

species(name='C6H8X(102)',
        atoms='C:6 H:8 X:1',
        thermo=(NASA([100.00, 950.09],
                     [ 1.74466419E+00,  3.17309572E-02,  4.60941019E-05,
                      -8.51520158E-08,  3.56723984E-11,  1.36117241E+04,
                       2.08623873E+00]),
                NASA([950.09, 5000.00],
                     [ 1.51787529E+01,  1.99753204E-02, -6.08170970E-06,
                       1.09326925E-09, -8.19190002E-14,  9.03685407E+03,
                      -7.26795446E+01])))

species(name='C6H8X(103)',
        atoms='C:6 H:8 X:1',
        thermo=(NASA([100.00, 931.00],
                     [ 1.29592054E+00,  3.85307506E-02,  4.12491323E-05,
                      -9.22211115E-08,  4.13900992E-11,  1.13336718E+04,
                       3.29528592E+00]),
                NASA([931.00, 5000.00],
                     [ 2.00470199E+01,  1.15250848E-02, -1.53014422E-06,
                       2.01998925E-10, -2.04033844E-14,  5.52112398E+03,
                      -9.82928619E+01])))

species(name='SX(107)',
        atoms='C:8 H:11 X:1',
        thermo=(NASA([100.00, 972.95],
                     [ 2.21466010E-01,  6.31114234E-02,  1.32714165E-05,
                      -6.52453350E-08,  3.01543312E-11,  1.00040466E+04,
                       1.01869045E+01]),
                NASA([972.95, 5000.00],
                     [ 1.97221836E+01,  3.08923682E-02, -1.09841195E-05,
                       2.02951282E-09, -1.47661214E-13,  3.93971502E+03,
                      -9.50219150E+01])))

species(name='SX(131)',
        atoms='C:8 H:10 X:1',
        thermo=(NASA([100.00, 932.58],
                     [-3.18563021E-04,  6.30210470E-02,  2.33799046E-05,
                      -9.13306879E-08,  4.41641705E-11,  1.76107507E+04,
                       1.05831526E+01]),
                NASA([932.58, 5000.00],
                     [ 2.59203075E+01,  1.54846083E-02, -2.52350661E-06,
                       3.61491385E-10, -3.21183105E-14,  1.00086372E+04,
                      -1.27497427E+02])))

species(name='C6H7X(140)',
        atoms='C:6 H:7 X:1',
        thermo=(NASA([100.00, 939.12],
                     [ 1.23971063E+00,  4.15294424E-02,  2.87312030E-05,
                      -7.68516542E-08,  3.51745289E-11,  7.00541241E+03,
                      -4.03285459E+00]),
                NASA([939.12, 5000.00],
                     [ 1.93724853E+01,  1.27701081E-02, -2.75741682E-06,
                       4.63865028E-10, -3.86965214E-14,  1.46208216E+03,
                      -1.01754711E+02])))

species(name='C6H7X(141)',
        atoms='C:6 H:7 X:1',
        thermo=(NASA([100.00, 937.50],
                     [ 1.68534221E+00,  3.10727778E-02,  5.20803235E-05,
                      -9.63157959E-08,  4.10725203E-11,  3.15589081E+03,
                      -3.14968750E+00]),
                NASA([937.50, 5000.00],
                     [ 1.71062754E+01,  1.56096156E-02, -3.71084904E-06,
                       6.25093623E-10, -4.95751867E-14, -1.94743328E+03,
                      -8.83483066E+01])))

species(name='CH4X(147)',
        atoms='C:1 H:4 X:1',
        thermo=(NASA([100.00, 886.29],
                     [-1.38687449E+00,  4.00450548E-02, -8.37917184E-05,
                       8.75651042E-08, -3.27875900E-11, -1.09112184E+04,
                       1.78811047E+01]),
                NASA([886.29, 5000.00],
                     [-2.16847811E+00,  1.99494198E-02, -9.80013650E-06,
                       1.83536669E-09, -1.22521982E-13, -9.84485611E+03,
                       2.67918007E+01])))

species(name='C2H6X(149)',
        atoms='C:2 H:6 X:1',
        thermo=(NASA([100.00, 826.21],
                     [-1.73432373E+00,  4.32697501E-02, -6.15090991E-05,
                       5.73040408E-08, -2.14186318E-11, -1.40653271E+04,
                       1.90799961E+01]),
                NASA([826.21, 5000.00],
                     [-4.51891226E-01,  2.66241096E-02, -1.23404364E-05,
                       2.34089053E-09, -1.61299398E-13, -1.39210121E+04,
                       1.52936020E+01])))

species(name='C3H6X(150)',
        atoms='C:3 H:6 X:1',
        thermo=(NASA([100.00, 1035.72],
                     [ 2.98025341E+00,  1.75590116E-02,  1.08420536E-05,
                      -2.10412228E-08,  7.89108045E-12, -6.15031747E+02,
                       6.01482216E+00]),
                NASA([1035.72, 5000.00],
                     [ 5.68307320E+00,  1.86002072E-02, -7.29148619E-06,
                       1.33239322E-09, -9.25364650E-14, -1.79062095E+03,
                      -1.00919932E+01])))

species(name='C3H7X(153)',
        atoms='C:3 H:7 X:1',