units(length='cm', time='s', quantity='mol', act_energy='kcal/mol')

ideal_gas(name='gas',
          elements="H D T C Ci O Oi N Ne Ar He Si S F Cl Br I X",
          species="""n-heptane   Ar          He          Ne
                     N2          C2H4(2)     C4H8-1(3)   C4H8-2(4)
                     H(7)        C6H12-1(8)  C6H12-2(9)  C6H12(10)
                     C6H12(11)   C6H12(12)   H2(23)      C3H6(40)
                     C2H6(265)   C4H10(272)  CH4(408)    C6H14(465)
                     C6H14(503)  C3H8(523)   C5H12(749)  C5H12(750)
                     C4H10(987)""",
          reactions='gas-*',
          initial_state=state(temperature=300.0, pressure=OneAtm))

ideal_interface(name='surface1',
                elements="H D T C Ci O Oi N Ne Ar He Si S F Cl Br I X",
                species="""X(1)        HX(5)       C2H5X(6)    C2H3X(109)
                          CH2X(110)   C2H4X(111)  C3H5X(112)  CH3X(113)
                          C4H7X(114)  C4H7X(115)  C4H7X(116)  C4H7X(117)
                          C3H6X(118)  C4H8X(119)  C3H5X(120)  C2H4X(123)
                          C3H7X(125)  C4H9X(129)  SX(130)     SX(132)
                          SX(133)     C5H9X(140)  C5H9X(151)  C4H9X(152)
                          SX(153)     SX(155)     SX(158)     SX(159)
                          SX(204)     SX(205)     CH4X(263)   H2X(264)
                          C2H6X(266)  SX(268)     SX(269)     SX(270)
                          C3H8X(271)  SX(273)     C2H2X(377)  C3H6X(378)
                          C4H6X(389)  C2H3X(392)  C3H5X(393)  C3H5X(394)
                          C4H5X(397)  CHX(401)    C3H7X(402)  CX(405)
                          C4H6X(407)  SX(412)     SX(437)     SX(438)
                          SX(439)     SX(447)     SX(449)     SX(464)
                          SX(466)     SX(476)     C5H9X(478)  SX(481)
                          SX(491)     SX(495)     C4H9X(500)  SX(502)
                          C4H7X(552)  SX(557)     SX(580)     C3H4X(586)
                          SX(611)     C4H6X(644)  C4H8X(650)  SX(652)
                          C5H8X(665)  C5H9X(672)  C5H8X(674)  C4H5X(708)
                          SX(710)     SX(730)     C3H3X(855)  SX(863)
                          C5H8X(872)  SX(878)     SX(879)     C5H9X(885)
                          C5H9X(940)  SX(955)     SX(998)     SX(1216)
                          SX(1318)    SX(1714)    SX(1837)    SX(1905)
                          SX(1962)    SX(2409)    SX(2634)    SX(3180)
                          SX(3190)    SX(3199)    SX(4737)    SX(5180)
                          SX(5881)""",
                site_density=2.483e-09,
                phases="gas",
          reactions='surface1-*',
                initial_state=state(temperature=300.0, pressure=OneAtm))

#-------------------------------------------------------------------------------
# Element data
#-------------------------------------------------------------------------------

element(symbol='Ci', atomic_mass=13.003)
element(symbol='D', atomic_mass=2.014)
element(symbol='Oi', atomic_mass=17.999)
element(symbol='T', atomic_mass=3.016)
element(symbol='X', atomic_mass=195.083)
#-------------------------------------------------------------------------------
# Species data
#-------------------------------------------------------------------------------

species(name='n-heptane',
        atoms='C:7 H:16',
        thermo=(NASA([100.00, 1262.75],
                     [-2.93512125E-03,  7.69375610E-02, -3.48031525E-05,
                       1.86160506E-09,  2.01550529E-12, -2.57829334E+04,
                       3.00312819E+01]),
                NASA([1262.75, 5000.00],
                     [ 1.38379971E+01,  4.85941816E-02, -1.95472819E-05,
                       3.52833289E-09, -2.39061569E-13, -3.05142526E+04,
                      -4.48654615E+01])))

species(name='Ar',
        atoms='Ar:1',
        thermo=(NASA([200.00, 1000.00],
                     [ 2.50000000E+00,  0.00000000E+00,  0.00000000E+00,
                       0.00000000E+00,  0.00000000E+00, -7.45375000E+02,
                       4.37967000E+00]),
                NASA([1000.00, 6000.00],
                     [ 2.50000000E+00,  0.00000000E+00,  0.00000000E+00,
                       0.00000000E+00,  0.00000000E+00, -7.45375000E+02,
                       4.37967000E+00])))

species(name='He',
        atoms='He:1',
        thermo=(NASA([200.00, 1000.00],
                     [ 2.50000000E+00,  0.00000000E+00,  0.00000000E+00,
                       0.00000000E+00,  0.00000000E+00, -7.45375000E+02,
                       9.28724000E-01]),
                NASA([1000.00, 6000.00],
                     [ 2.50000000E+00,  0.00000000E+00,  0.00000000E+00,
                       0.00000000E+00,  0.00000000E+00, -7.45375000E+02,
                       9.28724000E-01])))

species(name='Ne',
        atoms='Ne:1',
        thermo=(NASA([200.00, 1000.00],
                     [ 2.50000000E+00,  0.00000000E+00,  0.00000000E+00,
                       0.00000000E+00,  0.00000000E+00, -7.45375000E+02,
                       3.35532000E+00]),
                NASA([1000.00, 6000.00],
                     [ 2.50000000E+00,  0.00000000E+00,  0.00000000E+00,
                       0.00000000E+00,  0.00000000E+00, -7.45375000E+02,
                       3.35532000E+00])))

species(name='N2',
        atoms='N:2',
        thermo=(NASA([200.00, 1000.00],
                     [ 3.53101000E+00, -1.23661000E-04, -5.02999000E-07,
                       2.43531000E-09, -1.40881000E-12, -1.04698000E+03,
                       2.96747000E+00]),
                NASA([1000.00, 6000.00],
                     [ 2.95258000E+00,  1.39690000E-03, -4.92632000E-07,
                       7.86010000E-11, -4.60755000E-15, -9.23949000E+02,
                       5.87189000E+00])))

species(name='C2H4(2)',
        atoms='C:2 H:4',
        thermo=(NASA([100.00, 979.37],
                     [ 3.97469045E+00, -4.75813325E-03,  4.16772624E-05,
                      -4.51377676E-08,  1.54218287E-11,  4.91540855E+03,
                       3.62439976E+00]),
                NASA([979.37, 5000.00],
                     [ 3.55670229E+00,  1.10625819E-02, -4.17009559E-06,
                       7.85564219E-10, -5.70042086E-14,  4.32042473E+03,
                       2.17665377E+00])))

species(name='C4H8-1(3)',
        atoms='C:4 H:8',
        thermo=(NASA([100.00, 1007.28],
                     [ 2.58772978E+00,  2.32777883E-02,  1.93412653E-05,
                      -3.55496729E-08,  1.36906178E-11, -1.91872929E+03,
                       1.45750592E+01]),
                NASA([1007.28, 5000.00],
                     [ 7.20516863E+00,  2.36361619E-02, -9.03150325E-06,
                       1.65392736E-09, -1.16019318E-13, -3.79733809E+03,
                      -1.24426086E+01])))

species(name='C4H8-2(4)',
        atoms='C:4 H:8',
        thermo=(NASA([100.00, 1157.78],
                     [ 2.51999305E+00,  2.76811707E-02,  9.44135366E-07,
                      -1.25013222E-08,  4.67160311E-12, -3.34374810E+03,
                       1.30195268E+01]),
                NASA([1157.78, 5000.00],
                     [ 6.04218222E+00,  2.60073554E-02, -1.04844041E-05,
                       1.90882450E-09, -1.30601743E-13, -4.86273126E+03,
                      -7.52672501E+00])))

species(name='H(7)',
        atoms='H:1',
        thermo=(NASA([100.00, 4383.16],
                     [ 2.50000000E+00, -2.38914167E-13,  3.12709494E-16,
                      -1.33367320E-19,  1.74989654E-23,  2.54742178E+04,
                      -4.44972897E-01]),
                NASA([4383.16, 5000.00],
                     [ 2.50003447E+00, -3.04996987E-08,  1.01101187E-11,
                      -1.48796738E-15,  8.20356170E-20,  2.54741866E+04,
                      -4.45191184E-01])))

species(name='C6H12-1(8)',
        atoms='C:6 H:12',
        thermo=(NASA([100.00, 2065.45],
                     [ 1.68598221E+00,  5.58664678E-02, -2.53058634E-05,
                       3.98022739E-09, -6.95050220E-14, -7.81739441E+03,
                       2.09920051E+01]),
                NASA([2065.45, 5000.00],
                     [ 2.13492441E+01,  2.79128048E-02, -1.23592816E-05,
                       2.17520184E-09, -1.38342160E-13, -1.81001612E+04,
                      -9.33636231E+01])))

species(name='C6H12-2(9)',
        atoms='C:6 H:12',
        thermo=(NASA([100.00, 1829.16],
                     [ 7.23497914E-01,  6.40962929E-02, -3.88937743E-05,
                       1.18285731E-08, -1.46479465E-12, -9.55473312E+03,
                       2.34752929E+01]),
                NASA([1829.16, 5000.00],
                     [ 1.55815815E+01,  3.16049577E-02, -1.22495189E-05,
                       2.11772642E-09, -1.37577832E-13, -1.49903398E+04,
                      -5.71786483E+01])))

species(name='C6H12(10)',
        atoms='C:6 H:12',
        thermo=(NASA([100.00, 1839.11],
                     [ 7.39765456E-01,  6.35836464E-02, -3.85035904E-05,
                       1.16726872E-08, -1.43916121E-12, -9.53996492E+03,
                       2.35193834E+01]),
                NASA([1839.11, 5000.00],
                     [ 1.56639500E+01,  3.11245826E-02, -1.20300125E-05,
                       2.07632194E-09, -1.34696993E-13, -1.50294956E+04,
                      -5.75744504E+01])))

species(name='C6H12(11)',
        atoms='C:6 H:12',
        thermo=(NASA([100.00, 1018.92],
                     [ 1.21824397E+00,  4.88307070E-02,  8.49214055E-06,
                      -3.91884007E-08,  1.67100558E-11, -8.55522000E+03,
                       2.43075994E+01]),
                NASA([1018.92, 5000.00],
                     [ 1.16699416E+01,  3.59248568E-02, -1.39119411E-05,
                       2.55989045E-09, -1.79819725E-13, -1.21450638E+04,
                      -3.34759078E+01])))

species(name='C6H12(12)',
        atoms='C:6 H:12',
        thermo=(NASA([100.00, 1917.59],
                     [ 2.29988559E+00,  4.93348058E-02, -1.39910600E-05,
                      -2.79392986E-09,  1.20742677E-12, -1.03230295E+04,
                       1.84312025E+01]),
                NASA([1917.59, 5000.00],
                     [ 1.85713833E+01,  3.37487534E-02, -1.61574143E-05,
                       2.95099503E-09, -1.92337797E-13, -1.99382403E+04,
                      -7.94628222E+01])))

species(name='H2(23)',
        atoms='H:2',
        thermo=(NASA([100.00, 1959.08],
                     [ 3.43536411E+00,  2.12710383E-04, -2.78625110E-07,
                       3.40267219E-10, -7.76032129E-14, -1.03135984E+03,
                      -3.90841731E+00]),
                NASA([1959.08, 5000.00],
                     [ 2.78816619E+00,  5.87640475E-04,  1.59010635E-07,
                      -5.52739465E-11,  4.34311304E-15, -5.96144481E+02,
                       1.12730527E-01])))

species(name='C3H6(40)',
        atoms='C:3 H:6',
        thermo=(NASA([100.00, 983.75],
                     [ 3.31912202E+00,  8.17957465E-03,  3.34736557E-05,
                      -4.36194260E-08,  1.58213614E-11,  7.49325285E+02,
                       9.54024700E+00]),
                NASA([983.75, 5000.00],
                     [ 5.36754789E+00,  1.70743084E-02, -6.35108004E-06,
                       1.16619619E-09, -8.27621023E-14, -4.87136723E+02,
                      -4.54465373E+00])))

species(name='C2H6(265)',
        atoms='C:2 H:6',
        thermo=(NASA([100.00, 1012.42],
                     [ 3.72239308E+00,  1.65083640E-03,  3.44175601E-05,
                      -3.76858321E-08,  1.24450696E-11, -1.15575902E+04,
                       4.68247939E+00]),
                NASA([1012.42, 5000.00],
                     [ 2.82848184E+00,  1.73040581E-02, -6.73334315E-06,
                       1.23742041E-09, -8.65676548E-14, -1.19978077E+04,
                       5.93812118E+00])))

species(name='C4H10(272)',
        atoms='C:4 H:10',
        thermo=(NASA([100.00, 1147.60],
                     [ 2.16918887E+00,  3.43904101E-02, -1.61547012E-06,
                      -1.30728593E-08,  5.17358217E-12, -1.72505138E+04,
                       1.46546529E+01]),
                NASA([1147.60, 5000.00],
                     [ 6.78899599E+00,  3.03598725E-02, -1.21262363E-05,
                       2.19945742E-09, -1.50289895E-13, -1.91057812E+04,
                      -1.17327118E+01])))

species(name='CH4(408)',
        atoms='C:1 H:4',
        thermo=(NASA([100.00, 1084.15],
                     [ 4.20540072E+00, -5.35540640E-03,  2.51117636E-05,
                      -2.13755910E-08,  5.97496145E-12, -1.01619427E+04,
                      -9.21226951E-01]),
                NASA([1084.15, 5000.00],
                     [ 9.08349401E-01,  1.14539479E-02, -4.57166053E-06,
                       8.29173612E-10, -5.66300105E-14, -9.72001110E+03,
                       1.39926204E+01])))

species(name='C6H14(465)',
        atoms='C:6 H:14',
        thermo=(NASA([100.00, 1048.16],
                     [ 8.83613659E-01,  5.70448382E-02, -2.15470473E-06,
                      -2.85517584E-08,  1.26620792E-11, -2.27982669E+04,
                       2.50352013E+01]),
                NASA([1048.16, 5000.00],
                     [ 1.11353754E+01,  4.25244871E-02, -1.65830081E-05,
                       3.01866041E-09, -2.09014516E-13, -2.62988340E+04,
                      -3.13526859E+01])))

species(name='C6H14(503)',
        atoms='C:6 H:14',
        thermo=(NASA([100.00, 1237.13],
                     [ 9.36168930E-01,  5.80634071E-02, -1.05209441E-05,
                      -1.36307211E-08,  5.73390960E-12, -2.34249395E+04,
                       2.40003868E+01]),
                NASA([1237.13, 5000.00],
                     [ 1.03163526E+01,  4.66435017E-02, -1.96012235E-05,
                       3.61723458E-09, -2.48218670E-13, -2.71928433E+04,
                      -2.90978404E+01])))

species(name='C3H8(523)',
        atoms='C:3 H:8',
        thermo=(NASA([100.00, 989.99],
                     [ 3.06337235E+00,  1.29213276E-02,  3.47037401E-05,
                      -4.70952219E-08,  1.71386763E-11, -1.43905793E+04,
                       1.07835211E+01]),
                NASA([989.99, 5000.00],
                     [ 5.60435845E+00,  2.19529500E-02, -8.22084738E-06,
                       1.50104968E-09, -1.05636167E-13, -1.58393862E+04,
                      -6.22599672E+00])))

species(name='C5H12(749)',
        atoms='C:5 H:12',
        thermo=(NASA([100.00, 1083.73],
                     [ 1.61171840E+00,  4.32471140E-02,  5.74844219E-06,
                      -2.75121475E-08,  1.08074793E-11, -2.00565280E+04,
                       1.98945417E+01]),
                NASA([1083.73, 5000.00],
                     [ 8.53699593E+00,  3.80811836E-02, -1.53301570E-05,
                       2.81974175E-09, -1.95504979E-13, -2.27552204E+04,
                      -1.95984354E+01])))

species(name='C5H12(750)',
        atoms='C:5 H:12',
        thermo=(NASA([100.00, 1035.90],
                     [ 1.72366154E+00,  4.01631085E-02,  1.63587863E-05,
                      -3.88306737E-08,  1.49772199E-11, -2.08560000E+04,
                       1.91511997E+01]),
                NASA([1035.90, 5000.00],
                     [ 7.87954528E+00,  3.91976340E-02, -1.52645480E-05,
                       2.77209178E-09, -1.91662206E-13, -2.33549587E+04,
                      -1.66703736E+01])))

species(name='C4H10(987)',
        atoms='C:4 H:10',
        thermo=(NASA([100.00, 987.07],
                     [ 2.18595704E+00,  3.04310946E-02,  1.83394870E-05,
                      -4.04100111E-08,  1.64485852E-11, -1.82080415E+04,
                       1.37947067E+01]),
                NASA([987.07, 5000.00],
                     [ 8.84805025E+00,  2.61184111E-02, -9.57935748E-06,
                       1.72896615E-09, -1.21008029E-13, -2.06283373E+04,
                      -2.38572247E+01])))

species(name='X(1)',
        atoms='X:1',
        thermo=(NASA([100.00, 1554.81],
                     [ 7.10134880E-03, -4.25615041E-05,  8.98521156E-08,
                      -7.80182565E-11,  2.32462166E-14, -8.76099414E-01,
                      -3.11209498E-02]),
                NASA([1554.81, 5000.00],
                     [ 1.60301287E-01, -2.52237396E-04,  1.14182282E-07,
                      -1.21473809E-11,  3.85806589E-16, -7.08108147E+01,
                      -9.09535600E-01])))

species(name='HX(5)',
        atoms='H:1 X:1',
        thermo=(NASA([100.00, 952.91],
                     [-3.80957846E-01,  5.47219393E-03,  2.60946928E-06,
                      -9.65008412E-09,  4.63967474E-12, -5.95314464E+03,
                       1.01722845E+00]),
                NASA([952.91, 5000.00],
                     [ 2.80337105E+00, -5.41002993E-04,  4.99482316E-07,
                      -7.54902555E-11,  3.06721398E-15, -6.89388323E+03,
                      -1.59435356E+01])))

species(name='C2H5X(6)',
        atoms='C:2 H:5 X:1',
        thermo=(NASA([100.00, 803.89],
                     [-1.64624290E+00,  3.89625197E-02, -4.31124593E-05,
                       2.97071589E-08, -8.80200440E-12, -8.05992278E+03,
                       9.27319544E+00]),
                NASA([803.89, 5000.00],
                     [ 1.97599860E+00,  2.09382411E-02, -9.47914613E-06,
                       1.81392354E-09, -1.27205831E-13, -8.64227656E+03,
                      -7.41117371E+00])))

species(name='C2H3X(109)',
        atoms='C:2 H:3 X:1',
        thermo=(NASA([100.00, 928.60],
                     [ 3.83104022E+00, -8.76542826E-03,  6.98017027E-05,
                      -8.68052566E-08,  3.33256145E-11, -1.35270051E+03,
                      -1.81156365E+01]),
                NASA([928.60, 5000.00],
                     [ 8.78015372E+00,  1.92565992E-03,  8.25424482E-07,
                      -1.63654020E-10,  5.70926320E-15, -3.65193853E+03,
                      -4.90566656E+01])))

species(name='CH2X(110)',
        atoms='C:1 H:2 X:1',
        thermo=(NASA([100.00, 1199.84],
                     [-1.02006572E+00,  2.03778530E-02, -2.17291021E-05,
                       1.15868493E-08, -2.38469826E-12,  3.73581276E+03,
                       2.99160375E+00]),
                NASA([1199.84, 5000.00],
                     [ 3.89285623E+00,  3.99892031E-03, -1.25227793E-06,
                       2.09081002E-10, -1.39642186E-14,  2.55689335E+03,
                      -2.16053785E+01])))

species(name='C2H4X(111)',
        atoms='C:2 H:4 X:1',
        thermo=(NASA([100.00, 940.15],
                     [ 3.88315385E+00, -7.62009644E-03,  6.32690924E-05,
                      -7.52917906E-08,  2.79387134E-11,  4.42964526E+03,
                      -1.23953225E+01]),
                NASA([940.15, 5000.00],
                     [ 6.60946016E+00,  6.91796044E-03, -1.62830580E-06,
                       2.98562998E-10, -2.53033988E-14,  2.76189237E+03,
                      -3.15232178E+01])))

species(name='C3H5X(112)',
        atoms='C:3 H:5 X:1',
        thermo=(NASA([100.00, 937.35],
                     [ 3.44141096E+00, -3.47613301E-03,  8.25901551E-05,
                      -1.05552399E-07,  4.04425050E-11, -2.11676142E+03,
                      -6.88821738E+00]),
                NASA([937.35, 5000.00],
                     [ 9.98170901E+00,  8.92230554E-03, -1.75420228E-06,
                       3.12232383E-10, -2.84111933E-14, -5.11365202E+03,
                      -4.74639238E+01])))

species(name='CH3X(113)',
        atoms='C:1 H:3 X:1',
        thermo=(NASA([100.00, 848.30],
                     [-1.21090611E+00,  2.92390831E-02, -4.49011672E-05,
                       3.86010689E-08, -1.30361474E-11, -4.07624723E+03,
                       6.80940157E+00]),
                NASA([848.30, 5000.00],
                     [ 1.62291116E+00,  1.12987225E-02, -5.08316650E-06,
                       9.46832954E-10, -6.42885005E-14, -4.39231312E+03,
                      -5.42502394E+00])))

species(name='C4H7X(114)',
        atoms='C:4 H:7 X:1',
        thermo=(NASA([100.00, 971.02],
                     [ 2.64368251E+00,  1.79003685E-02,  4.24457324E-05,
                      -6.44047422E-08,  2.49602315E-11, -7.01952687E+03,
                      -6.70003109E+00]),
                NASA([971.02, 5000.00],
                     [ 9.25860008E+00,  2.04066151E-02, -7.39155270E-06,
                       1.37023983E-09, -9.94156257E-14, -9.70696115E+03,
                      -4.56419548E+01])))

species(name='C4H7X(115)',
        atoms='C:4 H:7 X:1',
        thermo=(NASA([100.00, 986.68],
                     [ 2.45797290E+00,  2.47218439E-02,  2.01282012E-05,
                      -4.02730332E-08,  1.62483577E-11,  1.38266194E+03,
                      -5.12988514E+00]),
                NASA([986.68, 5000.00],
                     [ 8.87901611E+00,  2.09043388E-02, -7.83847728E-06,
                       1.44075651E-09, -1.02346191E-13, -9.65709419E+02,
                      -4.15009568E+01])))

species(name='C4H7X(116)',
        atoms='C:4 H:7 X:1',
        thermo=(NASA([100.00, 965.04],
                     [ 2.56885679E+00,  1.97490862E-02,  3.72996972E-05,
                      -6.04065123E-08,  2.40010228E-11, -9.12266684E+03,
                      -8.56593019E+00]),
                NASA([965.04, 5000.00],
                     [ 9.89750247E+00,  1.86147853E-02, -6.38912892E-06,
                       1.17316108E-09, -8.55462900E-14, -1.18988365E+04,
                      -5.07166347E+01])))

species(name='C4H7X(117)',
        atoms='C:4 H:7 X:1',
        thermo=(NASA([100.00, 949.34],
                     [ 2.54262411E+00,  1.77379351E-02,  4.93913107E-05,
                      -7.72926578E-08,  3.10681685E-11, -7.89703345E+03,
                      -8.46811948E+00]),
                NASA([949.34, 5000.00],
                     [ 1.15217625E+01,  1.60010436E-02, -4.89849803E-06,
                       8.84035360E-10, -6.63762686E-14, -1.12284555E+04,
                      -5.98873444E+01])))

species(name='C3H6X(118)',
        atoms='C:3 H:6 X:1',
        thermo=(NASA([100.00, 962.90],
                     [ 2.89772131E+00,  1.49758653E-02,  3.05793111E-05,
                      -4.86354478E-08,  1.92876729E-11, -3.67164201E+03,
                      -9.09774805E+00]),
                NASA([962.90, 5000.00],
                     [ 8.60391092E+00,  1.44744960E-02, -4.78484108E-06,
                       8.74233599E-10, -6.39911212E-14, -5.84619589E+03,
                      -4.19965874E+01])))

species(name='C4H8X(119)',
        atoms='C:4 H:8 X:1',
        thermo=(NASA([100.00, 1076.46],
                     [ 2.22987158E+00,  3.28680946E-02, -3.67131876E-06,
                      -1.27255432E-08,  5.73434943E-12, -5.14078035E+03,
                       6.98841568E+00]),
                NASA([1076.46, 5000.00],
                     [ 7.72832673E+00,  2.48501282E-02, -9.79663128E-06,
                       1.78091114E-09, -1.22693326E-13, -7.04377495E+03,
                      -2.32842555E+01])))

species(name='C3H5X(120)',
        atoms='C:3 H:5 X:1',
        thermo=(NASA([100.00, 939.07],
                     [ 3.23681525E+00,  3.73154944E-03,  6.01020526E-05,
                      -8.16234054E-08,  3.18530809E-11, -5.16593579E+03,
                      -1.35294815E+01]),
                NASA([939.07, 5000.00],
                     [ 9.70188975E+00,  9.48299599E-03, -2.25947885E-06,
                       3.98417297E-10, -3.27107153E-14, -7.84798920E+03,
                      -5.21286116E+01])))

species(name='C2H4X(123)',
        atoms='C:2 H:4 X:1',
        thermo=(NASA([100.00, 922.95],
                     [-1.51743966E+00,  3.54364160E-02, -3.81055319E-05,
                       2.35706536E-08, -6.09806371E-12, -1.37265356E+03,
                       5.77181645E+00]),
                NASA([922.95, 5000.00],
                     [ 2.83447637E+00,  1.65755512E-02, -7.45246257E-06,
                       1.42931809E-09, -1.00637324E-13, -2.17597508E+03,
                      -1.48747324E+01])))

species(name='C3H7X(125)',
        atoms='C:3 H:7 X:1',
        thermo=(NASA([100.00, 962.23],
                     [ 2.98506552E+00,  1.18444441E-02,  4.44607028E-05,
                      -6.24981514E-08,  2.38540312E-11, -1.12201827E+04,
                      -8.29651210E+00]),
                NASA([962.23, 5000.00],
                     [ 7.84460007E+00,  1.80194569E-02, -6.28237650E-06,
                       1.14555450E-09, -8.27261519E-14, -1.33764538E+04,
                      -3.78988550E+01])))

species(name='C4H9X(129)',
        atoms='C:4 H:9 X:1',
        thermo=(NASA([100.00, 993.09],
                     [ 2.22649398E+00,  2.86530264E-02,  2.37815365E-05,
                      -4.60602647E-08,  1.82913397E-11, -1.40802850E+04,
                      -3.55142154E+00]),
                NASA([993.09, 5000.00],
                     [ 9.09062474E+00,  2.59568966E-02, -9.83403953E-06,
                       1.80637333E-09, -1.27731585E-13, -1.66740041E+04,
                      -4.28140174E+01])))

species(name='SX(130)',
        atoms='C:6 H:11 X:1',
        thermo=(NASA([100.00, 1024.86],
                     [ 7.87703010E-01,  5.78475605E-02, -8.41420112E-06,
                      -2.70902460E-08,  1.35036264E-11, -1.30690396E+04,
                       2.57706051E+00]),
                NASA([1024.86, 5000.00],
                     [ 1.42998152E+01,  3.30125079E-02, -1.29038971E-05,
                       2.39586194E-09, -1.69442443E-13, -1.73039759E+04,
                      -7.00918413E+01])))

species(name='SX(132)',
        atoms='C:6 H:11 X:1',
        thermo=(NASA([100.00, 1658.07],
                     [ 1.09754565E+00,  5.87130290E-02, -2.82150459E-05,
                       4.42041584E-09,  1.18511189E-13, -1.49957155E+04,
                      -8.05854731E-02]),
                NASA([1658.07, 5000.00],
                     [ 1.58897439E+01,  3.32898751E-02, -1.44994458E-05,
                       2.63853883E-09, -1.75646619E-13, -2.13116514E+04,
                      -8.31779819E+01])))

species(name='SX(133)',
        atoms='C:6 H:11 X:1',
        thermo=(NASA([100.00, 1391.18],
                     [ 9.36936124E-01,  5.91869263E-02, -2.60486183E-05,
                       8.64626621E-10,  1.42948750E-12, -1.38745304E+04,
                       4.14436628E-01]),
                NASA([1391.18, 5000.00],
                     [ 1.36828637E+01,  3.60907790E-02, -1.57576468E-05,
                       2.93524508E-09, -2.00928843E-13, -1.87322811E+04,
                      -6.99985821E+01])))

species(name='C5H9X(140)',
        atoms='C:5 H:9 X:1',
        thermo=(NASA([100.00, 1286.37],
                     [ 1.67558895E+00,  4.40607760E-02, -1.17171234E-05,
                      -7.35190455E-09,  3.47857343E-12, -1.10447782E+04,
                      -4.27935961E+00]),
                NASA([1286.37, 5000.00],
                     [ 1.05007886E+01,  3.12727623E-02, -1.38933236E-05,
                       2.63188722E-09, -1.82858792E-13, -1.45277110E+04,
                      -5.37908987E+01])))

species(name='C5H9X(151)',
        atoms='C:5 H:9 X:1',
        thermo=(NASA([100.00, 1369.42],
                     [ 1.97861230E+00,  3.94790195E-02, -4.19649705E-06,
                      -1.09552875E-08,  3.86520167E-12, -9.72797889E+03,
                      -4.11294422E+00]),
                NASA([1369.42, 5000.00],
                     [ 9.23633768E+00,  3.40241681E-02, -1.54673419E-05,
                       2.92730548E-09, -2.01894354E-13, -1.31920543E+04,
                      -4.67992454E+01])))

species(name='C4H9X(152)',
        atoms='C:4 H:9 X:1',
        thermo=(NASA([100.00, 1009.34],
                     [ 2.45384267E+00,  2.40992831E-02,  3.11016702E-05,
                      -4.95707962E-08,  1.85297228E-11, -1.53633005E+04,
                      -3.52852897E+00]),
                NASA([1009.34, 5000.00],
                     [ 7.52077606E+00,  2.82414636E-02, -1.10516169E-05,
                       2.04773827E-09, -1.44619150E-13, -1.76199936E+04,
                      -3.41327944E+01])))

species(name='SX(153)',
        atoms='C:6 H:11 X:1',
        thermo=(NASA([100.00, 1550.39],
                     [ 1.45166463E+00,  5.31002102E-02, -1.52284299E-05,
                      -4.97500071E-09,  2.27114994E-12, -1.37961938E+04,
                       8.58572383E-01]),
                NASA([1550.39, 5000.00],
                     [ 1.35984585E+01,  3.89227147E-02, -1.81151679E-05,
                       3.40577447E-09, -2.31488923E-13, -1.96251692E+04,
                      -6.97207623E+01])))

species(name='SX(155)',
        atoms='C:6 H:11 X:1',
        thermo=(NASA([100.00, 1026.60],
                     [ 1.36764704E+00,  4.47157689E-02,  1.77345386E-05,
                      -4.72512383E-08,  1.90473030E-11, -6.89922538E+03,
                       5.40772520E+00]),
                NASA([1026.60, 5000.00],
                     [ 1.14238607E+01,  3.61440994E-02, -1.44680254E-05,
                       2.70638351E-09, -1.91762104E-13, -1.05770123E+04,
                      -5.12279643E+01])))

species(name='SX(158)',
        atoms='C:6 H:11 X:1',
        thermo=(NASA([100.00, 978.81],
                     [ 1.21352457E+00,  4.51041997E-02,  2.71691146E-05,
                      -6.49634218E-08,  2.73940170E-11, -1.57592961E+04,
                       1.12037994E+00]),
                NASA([978.81, 5000.00],
                     [ 1.41716384E+01,  3.12189569E-02, -1.14246118E-05,
                       2.10170118E-09, -1.50644114E-13, -2.01675637E+04,
                      -7.06778713E+01])))

species(name='SX(159)',
        atoms='C:6 H:11 X:1',
        thermo=(NASA([100.00, 967.66],
                     [ 1.17517117E+00,  4.40004940E-02,  3.53851910E-05,