units(length='cm', time='s', quantity='mol', act_energy='kcal/mol')

ideal_gas(name='gas',
          elements="H D T C Ci O Oi N Ne Ar He Si S F Cl Br I X",
          species="""n-heptane   Ar          He          Ne
                     N2          C2H4(2)     C4H8-1(3)   C4H8-2(4)
                     H2(17)      C4H8(132)   C2H6(166)   C6H12(170)
                     C4H10(171)  C6H14(243)  C6H14(269)  C4H10(284)
                     C6H14(295)  C6H14(338)  C6H12(985)  S(1147)
                     S(1377)     S(1727)""",
          reactions='gas-*',
          transport='Mix',
          initial_state=state(temperature=300.0, pressure=OneAtm))

ideal_interface(name='surface1',
                elements="H D T C Ci O Oi N Ne Ar He Si S F Cl Br I X",
                species="""X(1)        HX(5)       C2H3X(47)   C2H4X(48)
                          C2H5X(51)   C4H7X(52)   C4H7X(53)   C4H7X(54)
                          C4H7X(55)   C4H8X(56)   C4H8X(60)   C4H9X(77)
                          C4H9X(78)   C2H2X(81)   C6H11X(82)  C6H11X(83)
                          C6H11X(84)  C4H6X(86)   C6H11X(87)  C2H4X(95)
                          C4H6X(96)   C4H7X(106)  C4H6X(127)  C4H5X(141)
                          SX(163)     SX(164)     SX(165)     C2H3X(173)
                          SX(175)     C4H8X(184)  C4H5X(198)  H2X(214)
                          C2H6X(228)  C4H8X(230)  SX(231)     SX(245)
                          SX(247)     SX(249)     C4H9X(257)  SX(259)
                          SX(270)     C4H9X(278)  C4H8X(279)  SX(280)
                          SX(297)     SX(299)     SX(301)     C4H7X(312)
                          SX(313)     SX(316)     SX(326)     SX(339)
                          SX(340)     SX(350)     SX(353)     C4H7X(364)
                          SX(365)     SX(376)     SX(379)     SX(390)
                          SX(397)     SX(409)     SX(413)     SX(495)
                          SX(496)     SX(563)     C6H9X(613)  SX(704)
                          SX(781)     SX(782)     SX(841)     SX(899)
                          SX(957)     SX(986)     SX(1035)    SX(1083)
                          SX(1194)    SX(1305)    SX(1371)    SX(1372)
                          SX(1497)    SX(1576)    SX(1652)    SX(1689)
                          SX(1845)    SX(1926)    SX(2006)    SX(2045)
                          SX(2357)    SX(2361)    SX(2532)    SX(2716)
                          SX(2874)    SX(2876)    SX(2882)    SX(2983)
                          SX(3093)    SX(3171)    SX(3609)    SX(3610)
                          SX(3793)    SX(3927)    SX(4033)""",
                site_density=2.483e-09,
                phases="gas",
          reactions='surface1-*',
                initial_state=state(temperature=300.0, pressure=OneAtm))

#-------------------------------------------------------------------------------
# Element data
#-------------------------------------------------------------------------------

element(symbol='Ci', atomic_mass=13.003)
element(symbol='D', atomic_mass=2.014)
element(symbol='Oi', atomic_mass=17.999)
element(symbol='T', atomic_mass=3.016)
element(symbol='X', atomic_mass=195.083)
#-------------------------------------------------------------------------------
# Species data
#-------------------------------------------------------------------------------

species(name='n-heptane',
        atoms='C:7 H:16',
        thermo=(NASA([100.00, 1262.75],
                     [-2.93512125E-03,  7.69375610E-02, -3.48031525E-05,
                       1.86160506E-09,  2.01550529E-12, -2.57829334E+04,
                       3.00312819E+01]),
                NASA([1262.75, 5000.00],
                     [ 1.38379971E+01,  4.85941816E-02, -1.95472819E-05,
                       3.52833289E-09, -2.39061569E-13, -3.05142526E+04,
                      -4.48654615E+01])),
        transport=gas_transport(geom='nonlinear',
                                diam=6.366,
                                well_depth=402.997))

species(name='Ar',
        atoms='Ar:1',
        thermo=(NASA([200.00, 1000.00],
                     [ 2.50000000E+00,  0.00000000E+00,  0.00000000E+00,
                       0.00000000E+00,  0.00000000E+00, -7.45375000E+02,
                       4.37967000E+00]),
                NASA([1000.00, 6000.00],
                     [ 2.50000000E+00,  0.00000000E+00,  0.00000000E+00,
                       0.00000000E+00,  0.00000000E+00, -7.45375000E+02,
                       4.37967000E+00])),
        transport=gas_transport(geom='atom',
                                diam=3.33,
                                well_depth=136.501))

species(name='He',
        atoms='He:1',
        thermo=(NASA([200.00, 1000.00],
                     [ 2.50000000E+00,  0.00000000E+00,  0.00000000E+00,
                       0.00000000E+00,  0.00000000E+00, -7.45375000E+02,
                       9.28724000E-01]),
                NASA([1000.00, 6000.00],
                     [ 2.50000000E+00,  0.00000000E+00,  0.00000000E+00,
                       0.00000000E+00,  0.00000000E+00, -7.45375000E+02,
                       9.28724000E-01])),
        transport=gas_transport(geom='atom',
                                diam=2.576,
                                well_depth=10.2))

species(name='Ne',
        atoms='Ne:1',
        thermo=(NASA([200.00, 1000.00],
                     [ 2.50000000E+00,  0.00000000E+00,  0.00000000E+00,
                       0.00000000E+00,  0.00000000E+00, -7.45375000E+02,
                       3.35532000E+00]),
                NASA([1000.00, 6000.00],
                     [ 2.50000000E+00,  0.00000000E+00,  0.00000000E+00,
                       0.00000000E+00,  0.00000000E+00, -7.45375000E+02,
                       3.35532000E+00])),
        transport=gas_transport(geom='atom',
                                diam=3.758,
                                well_depth=148.6))

species(name='N2',
        atoms='N:2',
        thermo=(NASA([200.00, 1000.00],
                     [ 3.53101000E+00, -1.23661000E-04, -5.02999000E-07,
                       2.43531000E-09, -1.40881000E-12, -1.04698000E+03,
                       2.96747000E+00]),
                NASA([1000.00, 6000.00],
                     [ 2.95258000E+00,  1.39690000E-03, -4.92632000E-07,
                       7.86010000E-11, -4.60755000E-15, -9.23949000E+02,
                       5.87189000E+00])),
        transport=gas_transport(geom='linear',
                                diam=3.621,
                                well_depth=97.53,
                                polar=1.76,
                                rot_relax=4.0))

species(name='C2H4(2)',
        atoms='C:2 H:4',
        thermo=(NASA([100.00, 979.37],
                     [ 3.97469045E+00, -4.75813325E-03,  4.16772624E-05,
                      -4.51377676E-08,  1.54218287E-11,  4.91540855E+03,
                       3.62439976E+00]),
                NASA([979.37, 5000.00],
                     [ 3.55670229E+00,  1.10625819E-02, -4.17009559E-06,
                       7.85564219E-10, -5.70042086E-14,  4.32042473E+03,
                       2.17665377E+00])),
        transport=gas_transport(geom='nonlinear',
                                diam=3.971,
                                well_depth=280.801,
                                rot_relax=1.5))

species(name='C4H8-1(3)',
        atoms='C:4 H:8',
        thermo=(NASA([100.00, 1007.28],
                     [ 2.58772978E+00,  2.32777883E-02,  1.93412653E-05,
                      -3.55496729E-08,  1.36906178E-11, -1.91872929E+03,
                       1.45750592E+01]),
                NASA([1007.28, 5000.00],
                     [ 7.20516863E+00,  2.36361619E-02, -9.03150325E-06,
                       1.65392736E-09, -1.16019318E-13, -3.79733809E+03,
                      -1.24426086E+01])),
        transport=gas_transport(geom='nonlinear',
                                diam=5.176,
                                well_depth=357.002,
                                rot_relax=1.0))

species(name='C4H8-2(4)',
        atoms='C:4 H:8',
        thermo=(NASA([100.00, 1157.78],
                     [ 2.51999305E+00,  2.76811707E-02,  9.44135366E-07,
                      -1.25013222E-08,  4.67160311E-12, -3.34374810E+03,
                       1.30195268E+01]),
                NASA([1157.78, 5000.00],
                     [ 6.04218222E+00,  2.60073554E-02, -1.04844041E-05,
                       1.90882450E-09, -1.30601743E-13, -4.86273126E+03,
                      -7.52672501E+00])),
        transport=gas_transport(geom='nonlinear',
                                diam=5.289,
                                well_depth=359.053))

species(name='H2(17)',
        atoms='H:2',
        thermo=(NASA([100.00, 1959.08],
                     [ 3.43536411E+00,  2.12710383E-04, -2.78625110E-07,
                       3.40267219E-10, -7.76032129E-14, -1.03135984E+03,
                      -3.90841731E+00]),
                NASA([1959.08, 5000.00],
                     [ 2.78816619E+00,  5.87640475E-04,  1.59010635E-07,
                      -5.52739465E-11,  4.34311304E-15, -5.96144481E+02,
                       1.12730527E-01])),
        transport=gas_transport(geom='linear',
                                diam=2.833,
                                well_depth=59.7))

species(name='C4H8(132)',
        atoms='C:4 H:8',
        thermo=(NASA([100.00, 1061.32],
                     [ 2.52506524E+00,  2.64750742E-02,  7.08428866E-06,
                      -2.07740178E-08,  8.00465619E-12, -4.02607206E+03,
                       1.28856643E+01]),
                NASA([1061.32, 5000.00],
                     [ 6.48663440E+00,  2.49945454E-02, -9.83291861E-06,
                       1.79345326E-09, -1.24009900E-13, -5.62448308E+03,
                      -1.00311177E+01])),
        transport=gas_transport(geom='nonlinear',
                                diam=5.238,
                                well_depth=351.146))

species(name='C2H6(166)',
        atoms='C:2 H:6',
        thermo=(NASA([100.00, 1012.42],
                     [ 3.72239308E+00,  1.65083640E-03,  3.44175601E-05,
                      -3.76858321E-08,  1.24450696E-11, -1.15575902E+04,
                       4.68247939E+00]),
                NASA([1012.42, 5000.00],
                     [ 2.82848184E+00,  1.73040581E-02, -6.73334315E-06,
                       1.23742041E-09, -8.65676548E-14, -1.19978077E+04,
                       5.93812118E+00])),
        transport=gas_transport(geom='nonlinear',
                                diam=4.302,
                                well_depth=252.301,
                                rot_relax=1.5))

species(name='C6H12(170)',
        atoms='C:6 H:12',
        thermo=(NASA([100.00, 3144.66],
                     [ 1.62486458E+00,  5.81706991E-02, -2.94074833E-05,
                       6.41454590E-09, -5.27512950E-13, -9.95070714E+03,
                       2.05730382E+01]),
                NASA([3144.66, 5000.00],
                     [ 2.63111437E+01,  2.09625560E-02, -8.88917459E-06,
                       1.47742097E-09, -8.83257986E-14, -2.26053361E+04,
                      -1.22241742E+02])),
        transport=gas_transport(geom='nonlinear',
                                diam=5.876,
                                well_depth=387.836))

species(name='C4H10(171)',
        atoms='C:4 H:10',
        thermo=(NASA([100.00, 1147.60],
                     [ 2.16918887E+00,  3.43904101E-02, -1.61547012E-06,
                      -1.30728593E-08,  5.17358217E-12, -1.72505138E+04,
                       1.46546529E+01]),
                NASA([1147.60, 5000.00],
                     [ 6.78899599E+00,  3.03598725E-02, -1.21262363E-05,
                       2.19945742E-09, -1.50289895E-13, -1.91057812E+04,
                      -1.17327118E+01])),
        transport=gas_transport(geom='nonlinear',
                                diam=5.415,
                                well_depth=348.415))

species(name='C6H14(243)',
        atoms='C:6 H:14',
        thermo=(NASA([100.00, 1048.16],
                     [ 8.83613659E-01,  5.70448382E-02, -2.15470473E-06,
                      -2.85517584E-08,  1.26620792E-11, -2.27982669E+04,
                       2.50352013E+01]),
                NASA([1048.16, 5000.00],
                     [ 1.11353754E+01,  4.25244871E-02, -1.65830081E-05,
                       3.01866041E-09, -2.09014516E-13, -2.62988340E+04,
                      -3.13526859E+01])),
        transport=gas_transport(geom='nonlinear',
                                diam=6.051,
                                well_depth=385.187))

species(name='C6H14(269)',
        atoms='C:6 H:14',
        thermo=(NASA([100.00, 1237.13],
                     [ 9.36168930E-01,  5.80634071E-02, -1.05209441E-05,
                      -1.36307211E-08,  5.73390960E-12, -2.34249395E+04,
                       2.40003868E+01]),
                NASA([1237.13, 5000.00],
                     [ 1.03163526E+01,  4.66435017E-02, -1.96012235E-05,
                       3.61723458E-09, -2.48218670E-13, -2.71928433E+04,
                      -2.90978404E+01])),
        transport=gas_transport(geom='nonlinear',
                                diam=6.083,
                                well_depth=387.9))

species(name='C4H10(284)',
        atoms='C:4 H:10',
        thermo=(NASA([100.00, 987.07],
                     [ 2.18595704E+00,  3.04310946E-02,  1.83394870E-05,
                      -4.04100111E-08,  1.64485852E-11, -1.82080415E+04,
                       1.37947067E+01]),
                NASA([987.07, 5000.00],
                     [ 8.84805025E+00,  2.61184111E-02, -9.57935748E-06,
                       1.72896615E-09, -1.21008029E-13, -2.06283373E+04,
                      -2.38572247E+01])),
        transport=gas_transport(geom='nonlinear',
                                diam=5.448,
                                well_depth=351.237))

species(name='C6H14(295)',
        atoms='C:6 H:14',
        thermo=(NASA([100.00, 1002.80],
                     [ 9.62496218E-01,  5.35101546E-02,  1.32031263E-05,
                      -4.70259939E-08,  1.98553715E-11, -2.36936857E+04,
                       2.41378071E+01]),
                NASA([1002.80, 5000.00],
                     [ 1.14868354E+01,  4.22487190E-02, -1.59010293E-05,
                       2.86998539E-09, -1.99355079E-13, -2.73489714E+04,
                      -3.43665507E+01])),
        transport=gas_transport(geom='nonlinear',
                                diam=6.083,
                                well_depth=387.9))

species(name='C6H14(338)',
        atoms='C:6 H:14',
        thermo=(NASA([100.00, 999.59],
                     [ 1.13917006E+00,  5.18711187E-02,  1.51957332E-05,
                      -4.44289368E-08,  1.80496765E-11, -2.48256365E+04,
                       2.08096016E+01]),
                NASA([999.59, 5000.00],
                     [ 8.28876430E+00,  4.86580683E-02, -1.80935552E-05,
                       3.19042654E-09, -2.16942349E-13, -2.75237932E+04,
                      -2.00268176E+01])),
        transport=gas_transport(geom='nonlinear',
                                diam=6.127,
                                well_depth=391.366))

species(name='C6H12(985)',
        atoms='C:6 H:12',
        thermo=(NASA([100.00, 1698.32],
                     [ 1.59096309E+00,  5.26757966E-02, -1.83560662E-05,
                      -1.06687924E-09,  1.11258465E-12, -1.06220129E+04,
                       2.16531524E+01]),
                NASA([1698.32, 5000.00],
                     [ 1.44974887E+01,  3.62933219E-02, -1.62657874E-05,
                       2.97195174E-09, -1.97265691E-13, -1.70271902E+04,
                      -5.34000400E+01])),
        transport=gas_transport(geom='nonlinear',
                                diam=5.95,
                                well_depth=398.057))

species(name='S(1147)',
        atoms='C:6 H:12',
        thermo=(NASA([100.00, 1917.59],
                     [ 2.29988559E+00,  4.93348058E-02, -1.39910600E-05,
                      -2.79392986E-09,  1.20742677E-12, -1.03230295E+04,
                       1.84312025E+01]),
                NASA([1917.59, 5000.00],
                     [ 1.85713833E+01,  3.37487534E-02, -1.61574143E-05,
                       2.95099503E-09, -1.92337797E-13, -1.99382403E+04,
                      -7.94628222E+01])),
        transport=gas_transport(geom='nonlinear',
                                diam=5.95,
                                well_depth=398.057))

species(name='S(1377)',
        atoms='C:6 H:14',
        thermo=(NASA([100.00, 979.31],
                     [ 1.15760846E+00,  4.88425844E-02,  2.64134963E-05,
                      -6.01100875E-08,  2.45805344E-11, -2.37935340E+04,
                       2.21623549E+01]),
                NASA([979.31, 5000.00],
                     [ 1.04141290E+01,  4.37548101E-02, -1.59117938E-05,
                       2.82121604E-09, -1.94532295E-13, -2.71755515E+04,
                      -3.03123408E+01])),
        transport=gas_transport(geom='nonlinear',
                                diam=6.117,
                                well_depth=390.721))

species(name='S(1727)',
        atoms='C:6 H:12',
        thermo=(NASA([100.00, 1083.88],
                     [ 1.36792050E+00,  4.60329646E-02,  1.03880539E-05,
                      -3.61559110E-08,  1.41148566E-11, -1.08959262E+04,
                       2.21769146E+01]),
                NASA([1083.88, 5000.00],
                     [ 1.07760956E+01,  3.82407598E-02, -1.60947986E-05,
                       3.05492336E-09, -2.16279178E-13, -1.45171346E+04,
                      -3.12665872E+01])),
        transport=gas_transport(geom='nonlinear',
                                diam=5.976,
                                well_depth=400.833))

species(name='X(1)',
        atoms='X:1',
        thermo=(NASA([100.00, 1554.81],
                     [ 7.10134880E-03, -4.25615041E-05,  8.98521156E-08,
                      -7.80182565E-11,  2.32462166E-14, -8.76099414E-01,
                      -3.11209498E-02]),
                NASA([1554.81, 5000.00],
                     [ 1.60301287E-01, -2.52237396E-04,  1.14182282E-07,
                      -1.21473809E-11,  3.85806589E-16, -7.08108147E+01,
                      -9.09535600E-01])))

species(name='HX(5)',
        atoms='H:1 X:1',
        thermo=(NASA([100.00, 952.91],
                     [-3.80957846E-01,  5.47219393E-03,  2.60946928E-06,
                      -9.65008412E-09,  4.63967474E-12, -5.95314464E+03,
                       1.01722845E+00]),
                NASA([952.91, 5000.00],
                     [ 2.80337105E+00, -5.41002993E-04,  4.99482316E-07,
                      -7.54902555E-11,  3.06721398E-15, -6.89388323E+03,
                      -1.59435356E+01])))

species(name='C2H3X(47)',
        atoms='C:2 H:3 X:1',
        thermo=(NASA([100.00, 928.60],
                     [ 3.83104022E+00, -8.76542826E-03,  6.98017027E-05,
                      -8.68052566E-08,  3.33256145E-11, -1.35270051E+03,
                      -1.81156365E+01]),
                NASA([928.60, 5000.00],
                     [ 8.78015372E+00,  1.92565992E-03,  8.25424482E-07,
                      -1.63654020E-10,  5.70926320E-15, -3.65193853E+03,
                      -4.90566656E+01])))

species(name='C2H4X(48)',
        atoms='C:2 H:4 X:1',
        thermo=(NASA([100.00, 940.15],
                     [ 3.88315385E+00, -7.62009644E-03,  6.32690924E-05,
                      -7.52917906E-08,  2.79387134E-11,  4.42964526E+03,
                      -1.23953225E+01]),
                NASA([940.15, 5000.00],
                     [ 6.60946016E+00,  6.91796044E-03, -1.62830580E-06,
                       2.98562998E-10, -2.53033988E-14,  2.76189237E+03,
                      -3.15232178E+01])))

species(name='C2H5X(51)',
        atoms='C:2 H:5 X:1',
        thermo=(NASA([100.00, 803.89],
                     [-1.64624290E+00,  3.89625197E-02, -4.31124593E-05,
                       2.97071589E-08, -8.80200440E-12, -8.05992278E+03,
                       9.27319544E+00]),
                NASA([803.89, 5000.00],
                     [ 1.97599860E+00,  2.09382411E-02, -9.47914613E-06,
                       1.81392354E-09, -1.27205831E-13, -8.64227656E+03,
                      -7.41117371E+00])))

species(name='C4H7X(52)',
        atoms='C:4 H:7 X:1',
        thermo=(NASA([100.00, 971.02],
                     [ 2.64368251E+00,  1.79003685E-02,  4.24457324E-05,
                      -6.44047422E-08,  2.49602315E-11, -7.01952687E+03,
                      -6.70003109E+00]),
                NASA([971.02, 5000.00],
                     [ 9.25860008E+00,  2.04066151E-02, -7.39155270E-06,
                       1.37023983E-09, -9.94156257E-14, -9.70696115E+03,
                      -4.56419548E+01])))

species(name='C4H7X(53)',
        atoms='C:4 H:7 X:1',
        thermo=(NASA([100.00, 986.68],
                     [ 2.45797290E+00,  2.47218439E-02,  2.01282012E-05,
                      -4.02730332E-08,  1.62483577E-11,  1.38266194E+03,
                      -5.12988514E+00]),
                NASA([986.68, 5000.00],
                     [ 8.87901611E+00,  2.09043388E-02, -7.83847728E-06,
                       1.44075651E-09, -1.02346191E-13, -9.65709419E+02,
                      -4.15009568E+01])))

species(name='C4H7X(54)',
        atoms='C:4 H:7 X:1',
        thermo=(NASA([100.00, 965.04],
                     [ 2.56885679E+00,  1.97490862E-02,  3.72996972E-05,
                      -6.04065123E-08,  2.40010228E-11, -9.12266684E+03,
                      -8.56593019E+00]),
                NASA([965.04, 5000.00],
                     [ 9.89750247E+00,  1.86147853E-02, -6.38912892E-06,
                       1.17316108E-09, -8.55462900E-14, -1.18988365E+04,
                      -5.07166347E+01])))

species(name='C4H7X(55)',
        atoms='C:4 H:7 X:1',
        thermo=(NASA([100.00, 949.34],
                     [ 2.54262411E+00,  1.77379351E-02,  4.93913107E-05,
                      -7.72926578E-08,  3.10681685E-11, -7.89703345E+03,
                      -8.46811948E+00]),
                NASA([949.34, 5000.00],
                     [ 1.15217625E+01,  1.60010436E-02, -4.89849803E-06,
                       8.84035360E-10, -6.63762686E-14, -1.12284555E+04,
                      -5.98873444E+01])))

species(name='C4H8X(56)',
        atoms='C:4 H:8 X:1',
        thermo=(NASA([100.00, 1076.46],
                     [ 2.22987158E+00,  3.28680946E-02, -3.67131876E-06,
                      -1.27255432E-08,  5.73434943E-12, -5.14078035E+03,
                       6.98841568E+00]),
                NASA([1076.46, 5000.00],
                     [ 7.72832673E+00,  2.48501282E-02, -9.79663128E-06,
                       1.78091114E-09, -1.22693326E-13, -7.04377495E+03,
                      -2.32842555E+01])))

species(name='C4H8X(60)',
        atoms='C:4 H:8 X:1',
        thermo=(NASA([100.00, 2048.99],
                     [ 2.24665805E+00,  3.61003098E-02, -1.75741191E-05,
                       3.86568418E-09, -3.15338935E-13, -4.71041746E+03,
                       9.27326610E+00]),
                NASA([2048.99, 5000.00],
                     [ 1.23400046E+01,  1.92604054E-02, -7.34291317E-06,
                       1.21903010E-09, -7.56543908E-14, -9.44788338E+03,
                      -4.81288743E+01])))

species(name='C4H9X(77)',
        atoms='C:4 H:9 X:1',
        thermo=(NASA([100.00, 1009.34],
                     [ 2.45384267E+00,  2.40992831E-02,  3.11016702E-05,
                      -4.95707962E-08,  1.85297228E-11, -1.53633005E+04,
                      -3.52852897E+00]),
                NASA([1009.34, 5000.00],
                     [ 7.52077606E+00,  2.82414636E-02, -1.10516169E-05,
                       2.04773827E-09, -1.44619150E-13, -1.76199936E+04,
                      -3.41327944E+01])))

species(name='C4H9X(78)',
        atoms='C:4 H:9 X:1',
        thermo=(NASA([100.00, 993.09],
                     [ 2.22649398E+00,  2.86530264E-02,  2.37815365E-05,
                      -4.60602647E-08,  1.82913397E-11, -1.40802850E+04,
                      -3.55142154E+00]),
                NASA([993.09, 5000.00],
                     [ 9.09062474E+00,  2.59568966E-02, -9.83403953E-06,
                       1.80637333E-09, -1.27731585E-13, -1.66740041E+04,
                      -4.28140174E+01])))

species(name='C2H2X(81)',
        atoms='C:2 H:2 X:1',
        thermo=(NASA([100.00, 1146.92],
                     [-1.35665820E+00,  2.85337846E-02, -3.11240302E-05,
                       1.70133631E-08, -3.63321309E-12,  1.74003146E+03,
                       3.79543002E+00]),
                NASA([1146.92, 5000.00],
                     [ 4.86808415E+00,  6.82426487E-03, -2.73109304E-06,
                       5.09412825E-10, -3.57465702E-14,  3.12181644E+02,
                      -2.70886136E+01])))

species(name='C6H11X(82)',
        atoms='C:6 H:11 X:1',
        thermo=(NASA([100.00, 1998.52],
                     [ 2.20077779E+00,  5.00544684E-02, -1.73492647E-05,
                      -1.15858113E-10,  6.32501999E-13, -6.19064357E+03,
                       7.72985095E-01]),
                NASA([1998.52, 5000.00],
                     [ 1.92121759E+01,  3.08503816E-02, -1.40766777E-05,
                       2.50892710E-09, -1.60738870E-13, -1.59545639E+04,
                      -1.00492456E+02])))

species(name='C6H11X(83)',
        atoms='C:6 H:11 X:1',
        thermo=(NASA([100.00, 968.50],
                     [ 1.21377601E+00,  4.74389393E-02,  1.70460330E-05,
                      -5.31692416E-08,  2.32901832E-11, -5.62500897E+03,
                       5.18278808E+00]),
                NASA([968.50, 5000.00],
                     [ 1.29067587E+01,  3.25067237E-02, -1.14962327E-05,
                       2.04427407E-09, -1.42968714E-13, -9.45455277E+03,
                      -5.89323529E+01])))

species(name='C6H11X(84)',
        atoms='C:6 H:11 X:1',
        thermo=(NASA([100.00, 1026.60],
                     [ 1.36764704E+00,  4.47157689E-02,  1.77345386E-05,
                      -4.72512383E-08,  1.90473030E-11, -6.89922538E+03,
                       5.40772520E+00]),
                NASA([1026.60, 5000.00],
                     [ 1.14238607E+01,  3.61440994E-02, -1.44680254E-05,
                       2.70638351E-09, -1.91762104E-13, -1.05770123E+04,
                      -5.12279643E+01])))

species(name='C4H6X(86)',
        atoms='C:4 H:6 X:1',
        thermo=(NASA([100.00, 974.48],
                     [ 2.42620337E+00,  2.52885336E-02,  1.53430080E-05,
                      -3.72061538E-08,  1.58647420E-11,  8.80002774E+03,
                      -6.01443175E+00]),
                NASA([974.48, 5000.00],
                     [ 1.01588765E+01,  1.62334698E-02, -5.63829389E-06,
                       1.03706763E-09, -7.51905962E-14,  6.21583244E+03,
                      -4.86468904E+01])))

species(name='C6H11X(87)',
        atoms='C:6 H:11 X:1',
        thermo=(NASA([100.00, 1863.33],
                     [ 1.34655422E+00,  5.74341665E-02, -2.71928324E-05,
                       4.48528718E-09, -5.38192027E-14, -4.85214474E+03,
                       3.09135987E+00]),
                NASA([1863.33, 5000.00],
                     [ 1.84293385E+01,  3.06091491E-02, -1.35249517E-05,
                       2.43113651E-09, -1.58715643E-13, -1.29276686E+04,
                      -9.45417488E+01])))

species(name='C2H4X(95)',
        atoms='C:2 H:4 X:1',
        thermo=(NASA([100.00, 922.95],
                     [-1.51743966E+00,  3.54364160E-02, -3.81055319E-05,
                       2.35706536E-08, -6.09806371E-12, -1.37265356E+03,
                       5.77181645E+00]),
                NASA([922.95, 5000.00],
                     [ 2.83447637E+00,  1.65755512E-02, -7.45246257E-06,
                       1.42931809E-09, -1.00637324E-13, -2.17597508E+03,
                      -1.48747324E+01])))

species(name='C4H6X(96)',
        atoms='C:4 H:6 X:1',
        thermo=(NASA([100.00, 1023.17],
                     [ 2.40014322E+00,  2.85396048E-02,  6.30703076E-07,
                      -1.80017709E-08,  8.10084465E-12,  2.92850851E+02,
                      -7.28045747E+00]),
                NASA([1023.17, 5000.00],
                     [ 8.63170755E+00,  1.90458832E-02, -7.24837792E-06,
                       1.33445680E-09, -9.39704356E-14, -1.76058722E+03,
                      -4.12900231E+01])))

species(name='C4H7X(106)',
        atoms='C:4 H:7 X:1',
        thermo=(NASA([100.00, 947.75],
                     [ 2.86443068E+00,  8.12921682E-03,  7.59618652E-05,
                      -1.03619921E-07,  4.00701955E-11, -6.05463149E+03,
                      -2.40048015E+00]),
                NASA([947.75, 5000.00],
                     [ 1.10488776E+01,  1.63915684E-02, -4.86289756E-06,
                       8.89653791E-10, -6.85145842E-14, -9.52841039E+03,
                      -5.15885474E+01])))

species(name='C4H6X(127)',
        atoms='C:4 H:6 X:1',
        thermo=(NASA([100.00, 948.80],
                     [ 2.81042399E+00,  9.74007030E-03,  7.48736354E-05,
                      -1.02008263E-07,  3.92840245E-11, -2.18631453E+03,
                      -5.80377810E+00]),
                NASA([948.80, 5000.00],
                     [ 1.04720265E+01,  1.91373636E-02, -5.90392061E-06,
                       1.06796550E-09, -8.00301920E-14, -5.51704028E+03,
                      -5.22545812E+01])))

species(name='C4H5X(141)',
        atoms='C:4 H:5 X:1',
        thermo=(NASA([100.00, 944.15],
                     [ 2.57733066E+00,  1.99647980E-02,  2.77060348E-05,
                      -5.31548567E-08,  2.26470750E-11, -1.09938476E+04,
                      -6.22100751E+00]),
                NASA([944.15, 5000.00],