units(length='cm', time='s', quantity='mol', act_energy='kcal/mol')

ideal_gas(name='gas',
          elements="H D T C Ci O Oi N Ne Ar He Si S F Cl Br I X",
          species="""n-heptane  Ar         He         Ne         N2
                     C2H4(2)    C4H8-1(3)  C4H8-2(4)  H2(17)     CH4(116)""",
          transport='Mix',
          initial_state=state(temperature=300.0, pressure=OneAtm))

ideal_interface(name='surface1',
                elements="H D T C Ci O Oi N Ne Ar He Si S F Cl Br I X",
                species="""X(1)        HX(5)       C2H4X2(37)  C2H3X(38)
                          CH2X(39)    C2H4X(40)   C4H8X2(41)  allylX(42)
                          CH3X(43)    C2H5X(44)   C4H7X(45)   C4H7X(46)
                          C4H7X(47)   C4H7X(48)   C3H6X(49)   C4H8X(50)
                          C3H5X(52)   C2H4X(55)   C4H9X(63)   C4H9X(64)
                          C2H3X2(65)  H2X(70)     CHX(71)     C2H2X2(72)
                          C2H2X(79)   C2H2X(80)   C2H3X(91)   C3H4X2(92)
                          C4H5X(100)  CX(108)     C3H4X(109)  C3H7X(112)
                          SX(113)     CH4X(117)   SX(118)     C3H6X(119)
                          C3H5X(120)  C3H5X(121)  C2H6X(124)  C3H7X(130)
                          C4H8X(134)  C4H7X(135)  C3H8X(138)  SX(140)
                          SX(141)     SX(143)     C4H6X(145)  C3H6X(147)
                          SX(150)     C5H7X(181)  C4H6X(184)  C4H7X(185)
                          C5H9X(188)  C5H8X(192)  SX(204)     C5H8X(207)
                          C5H9X(211)  SX(213)     C3H3X(222)  C5H9X(233)
                          SX(240)     C5H8X(247)  SX(295)     C5H8X(312)
                          C5H9X(313)  SX(315)     SX(319)     SX(341)
                          SX(354)     C4H5X(493)  SX(500)     SX(518)
                          SX(524)     C5H9X(547)  SX(551)     SX(606)
                          SX(613)     SX(642)     SX(643)     SX(656)
                          SX(657)     SX(667)     SX(707)     SX(759)
                          SX(761)     SX(762)     SX(763)     SX(766)
                          SX(767)     SX(769)     SX(770)     SX(771)
                          SX(780)     SX(783)     SX(829)     SX(944)
                          SX(972)     SX(977)     SX(978)     SX(979)
                          SX(980)     SX(1017)    SX(1021)    SX(1023)
                          SX(1032)    SX(1033)    SX(1052)    SX(1068)
                          SX(1103)    SX(1122)    SX(1123)    SX(1203)
                          SX(1213)    SX(1571)    SX(1681)    SX(1682)
                          SX(1685)    SX(1686)    SX(1745)    SX(1821)
                          SX(1894)    SX(1903)    SX(1993)    SX(1994)
                          SX(1995)    SX(1998)    SX(1999)    SX(2001)
                          SX(2002)    SX(2005)    SX(2006)    SX(2040)
                          SX(2041)    SX(2078)    SX(2148)    SX(2218)
                          SX(2221)    SX(2361)    SX(2908)    SX(3505)
                          SX(4777)    SX(4805)    SX(4811)    SX(5203)
                          SX(5729)    SX(5952)    SX(6223)    SX(6236)
                          SX(6291)    SX(6300)    SX(6866)    SX(10174)
                          SX(11697)""",
                site_density=2.483e-09,
                phases="gas",
          reactions='all',
                initial_state=state(temperature=300.0, pressure=OneAtm))

#-------------------------------------------------------------------------------
# Element data
#-------------------------------------------------------------------------------

element(symbol='Ci', atomic_mass=13.003)
element(symbol='D', atomic_mass=2.014)
element(symbol='Oi', atomic_mass=17.999)
element(symbol='T', atomic_mass=3.016)
element(symbol='X', atomic_mass=195.083)
#-------------------------------------------------------------------------------
# Species data
#-------------------------------------------------------------------------------

species(name='n-heptane',
        atoms='C:7 H:16',
        thermo=(NASA([100.00, 1262.75],
                     [-2.93512125E-03,  7.69375610E-02, -3.48031525E-05,
                       1.86160506E-09,  2.01550529E-12, -2.57829334E+04,
                       3.00312819E+01]),
                NASA([1262.75, 5000.00],
                     [ 1.38379971E+01,  4.85941816E-02, -1.95472819E-05,
                       3.52833289E-09, -2.39061569E-13, -3.05142526E+04,
                      -4.48654615E+01])),
        transport=gas_transport(geom='nonlinear',
                                diam=6.366,
                                well_depth=402.997))

species(name='Ar',
        atoms='Ar:1',
        thermo=(NASA([200.00, 1000.00],
                     [ 2.50000000E+00,  0.00000000E+00,  0.00000000E+00,
                       0.00000000E+00,  0.00000000E+00, -7.45375000E+02,
                       4.37967000E+00]),
                NASA([1000.00, 6000.00],
                     [ 2.50000000E+00,  0.00000000E+00,  0.00000000E+00,
                       0.00000000E+00,  0.00000000E+00, -7.45375000E+02,
                       4.37967000E+00])),
        transport=gas_transport(geom='atom',
                                diam=3.33,
                                well_depth=136.501))

species(name='He',
        atoms='He:1',
        thermo=(NASA([200.00, 1000.00],
                     [ 2.50000000E+00,  0.00000000E+00,  0.00000000E+00,
                       0.00000000E+00,  0.00000000E+00, -7.45375000E+02,
                       9.28724000E-01]),
                NASA([1000.00, 6000.00],
                     [ 2.50000000E+00,  0.00000000E+00,  0.00000000E+00,
                       0.00000000E+00,  0.00000000E+00, -7.45375000E+02,
                       9.28724000E-01])),
        transport=gas_transport(geom='atom',
                                diam=2.576,
                                well_depth=10.2))

species(name='Ne',
        atoms='Ne:1',
        thermo=(NASA([200.00, 1000.00],
                     [ 2.50000000E+00,  0.00000000E+00,  0.00000000E+00,
                       0.00000000E+00,  0.00000000E+00, -7.45375000E+02,
                       3.35532000E+00]),
                NASA([1000.00, 6000.00],
                     [ 2.50000000E+00,  0.00000000E+00,  0.00000000E+00,
                       0.00000000E+00,  0.00000000E+00, -7.45375000E+02,
                       3.35532000E+00])),
        transport=gas_transport(geom='atom',
                                diam=3.758,
                                well_depth=148.6))

species(name='N2',
        atoms='N:2',
        thermo=(NASA([200.00, 1000.00],
                     [ 3.53101000E+00, -1.23661000E-04, -5.02999000E-07,
                       2.43531000E-09, -1.40881000E-12, -1.04698000E+03,
                       2.96747000E+00]),
                NASA([1000.00, 6000.00],
                     [ 2.95258000E+00,  1.39690000E-03, -4.92632000E-07,
                       7.86010000E-11, -4.60755000E-15, -9.23949000E+02,
                       5.87189000E+00])),
        transport=gas_transport(geom='linear',
                                diam=3.621,
                                well_depth=97.53,
                                polar=1.76,
                                rot_relax=4.0))

species(name='C2H4(2)',
        atoms='C:2 H:4',
        thermo=(NASA([100.00, 979.37],
                     [ 3.97469045E+00, -4.75813325E-03,  4.16772624E-05,
                      -4.51377676E-08,  1.54218287E-11,  4.91540855E+03,
                       3.62439976E+00]),
                NASA([979.37, 5000.00],
                     [ 3.55670229E+00,  1.10625819E-02, -4.17009559E-06,
                       7.85564219E-10, -5.70042086E-14,  4.32042473E+03,
                       2.17665377E+00])),
        transport=gas_transport(geom='nonlinear',
                                diam=3.971,
                                well_depth=280.801,
                                rot_relax=1.5))

species(name='C4H8-1(3)',
        atoms='C:4 H:8',
        thermo=(NASA([100.00, 1007.28],
                     [ 2.58772978E+00,  2.32777883E-02,  1.93412653E-05,
                      -3.55496729E-08,  1.36906178E-11, -1.91872929E+03,
                       1.45750592E+01]),
                NASA([1007.28, 5000.00],
                     [ 7.20516863E+00,  2.36361619E-02, -9.03150325E-06,
                       1.65392736E-09, -1.16019318E-13, -3.79733809E+03,
                      -1.24426086E+01])),
        transport=gas_transport(geom='nonlinear',
                                diam=5.176,
                                well_depth=357.002,
                                rot_relax=1.0))

species(name='C4H8-2(4)',
        atoms='C:4 H:8',
        thermo=(NASA([100.00, 1157.78],
                     [ 2.51999305E+00,  2.76811707E-02,  9.44135366E-07,
                      -1.25013222E-08,  4.67160311E-12, -3.34374810E+03,
                       1.30195268E+01]),
                NASA([1157.78, 5000.00],
                     [ 6.04218222E+00,  2.60073554E-02, -1.04844041E-05,
                       1.90882450E-09, -1.30601743E-13, -4.86273126E+03,
                      -7.52672501E+00])),
        transport=gas_transport(geom='nonlinear',
                                diam=5.289,
                                well_depth=359.053))

species(name='H2(17)',
        atoms='H:2',
        thermo=(NASA([100.00, 1959.08],
                     [ 3.43536411E+00,  2.12710383E-04, -2.78625110E-07,
                       3.40267219E-10, -7.76032129E-14, -1.03135984E+03,
                      -3.90841731E+00]),
                NASA([1959.08, 5000.00],
                     [ 2.78816619E+00,  5.87640475E-04,  1.59010635E-07,
                      -5.52739465E-11,  4.34311304E-15, -5.96144481E+02,
                       1.12730527E-01])),
        transport=gas_transport(geom='linear',
                                diam=2.833,
                                well_depth=59.7))

species(name='CH4(116)',
        atoms='C:1 H:4',
        thermo=(NASA([100.00, 1084.15],
                     [ 4.20540072E+00, -5.35540640E-03,  2.51117636E-05,
                      -2.13755910E-08,  5.97496145E-12, -1.01619427E+04,
                      -9.21226951E-01]),
                NASA([1084.15, 5000.00],
                     [ 9.08349401E-01,  1.14539479E-02, -4.57166053E-06,
                       8.29173612E-10, -5.66300105E-14, -9.72001110E+03,
                       1.39926204E+01])),
        transport=gas_transport(geom='nonlinear',
                                diam=3.746,
                                well_depth=141.4,
                                polar=2.6,
                                rot_relax=13.0))

species(name='X(1)',
        atoms='X:1',
        thermo=(NASA([100.00, 1554.81],
                     [ 7.10134880E-03, -4.25615041E-05,  8.98521156E-08,
                      -7.80182565E-11,  2.32462166E-14, -8.76099414E-01,
                      -3.11209498E-02]),
                NASA([1554.81, 5000.00],
                     [ 1.60301287E-01, -2.52237396E-04,  1.14182282E-07,
                      -1.21473809E-11,  3.85806589E-16, -7.08108147E+01,
                      -9.09535600E-01])))

species(name='HX(5)',
        atoms='H:1 X:1',
        thermo=(NASA([100.00, 952.91],
                     [-3.80957846E-01,  5.47219393E-03,  2.60946928E-06,
                      -9.65008412E-09,  4.63967474E-12, -5.95314464E+03,
                       1.01722845E+00]),
                NASA([952.91, 5000.00],
                     [ 2.80337105E+00, -5.41002993E-04,  4.99482316E-07,
                      -7.54902555E-11,  3.06721398E-15, -6.89388323E+03,
                      -1.59435356E+01])))

species(name='C2H4X2(37)',
        atoms='C:2 H:4 X:2',
        thermo=(NASA([100.00, 1409.64],
                     [-1.67894612E+00,  3.26319654E-02, -2.74994843E-05,
                       1.18789400E-08, -2.03207568E-12, -4.08093746E+03,
                       6.45801857E+00]),
                NASA([1409.64, 5000.00],
                     [ 6.16184108E+00,  1.03831955E-02, -3.82483212E-06,
                       6.82532597E-10, -4.64149548E-14, -6.29150260E+03,
                      -3.40613571E+01])),
        size=2.0)

species(name='C2H3X(38)',
        atoms='C:2 H:3 X:1',
        thermo=(NASA([100.00, 928.60],
                     [ 3.83104022E+00, -8.76542826E-03,  6.98017027E-05,
                      -8.68052566E-08,  3.33256145E-11, -1.35270051E+03,
                      -1.81156365E+01]),
                NASA([928.60, 5000.00],
                     [ 8.78015372E+00,  1.92565992E-03,  8.25424482E-07,
                      -1.63654020E-10,  5.70926320E-15, -3.65193853E+03,
                      -4.90566656E+01])))

species(name='CH2X(39)',
        atoms='C:1 H:2 X:1',
        thermo=(NASA([100.00, 1199.84],
                     [-1.02006572E+00,  2.03778530E-02, -2.17291021E-05,
                       1.15868493E-08, -2.38469826E-12,  3.73581276E+03,
                       2.99160375E+00]),
                NASA([1199.84, 5000.00],
                     [ 3.89285623E+00,  3.99892031E-03, -1.25227793E-06,
                       2.09081002E-10, -1.39642186E-14,  2.55689335E+03,
                      -2.16053785E+01])))

species(name='C2H4X(40)',
        atoms='C:2 H:4 X:1',
        thermo=(NASA([100.00, 940.15],
                     [ 3.88315385E+00, -7.62009644E-03,  6.32690924E-05,
                      -7.52917906E-08,  2.79387134E-11,  4.42964526E+03,
                      -1.23953225E+01]),
                NASA([940.15, 5000.00],
                     [ 6.60946016E+00,  6.91796044E-03, -1.62830580E-06,
                       2.98562998E-10, -2.53033988E-14,  2.76189237E+03,
                      -3.15232178E+01])))

species(name='C4H8X2(41)',
        atoms='C:4 H:8 X:2',
        thermo=(NASA([100.00, 961.50],
                     [ 2.34819294E+00,  2.36186287E-02,  3.73973244E-05,
                      -6.37209224E-08,  2.56987931E-11, -1.17123668E+04,
                      -5.60220135E+00]),
                NASA([961.50, 5000.00],
                     [ 1.07013175E+01,  2.04818554E-02, -7.02784751E-06,
                       1.27712067E-09, -9.24367158E-14, -1.47799981E+04,
                      -5.31724088E+01])),
        size=2.0)

species(name='allylX(42)',
        atoms='C:3 H:5 X:1',
        thermo=(NASA([100.00, 937.35],
                     [ 3.44141096E+00, -3.47613301E-03,  8.25901551E-05,
                      -1.05552399E-07,  4.04425050E-11, -2.11676142E+03,
                      -6.88821738E+00]),
                NASA([937.35, 5000.00],
                     [ 9.98170901E+00,  8.92230554E-03, -1.75420228E-06,
                       3.12232383E-10, -2.84111933E-14, -5.11365202E+03,
                      -4.74639238E+01])))

species(name='CH3X(43)',
        atoms='C:1 H:3 X:1',
        thermo=(NASA([100.00, 848.30],
                     [-1.21090611E+00,  2.92390831E-02, -4.49011672E-05,
                       3.86010689E-08, -1.30361474E-11, -4.07624723E+03,
                       6.80940157E+00]),
                NASA([848.30, 5000.00],
                     [ 1.62291116E+00,  1.12987225E-02, -5.08316650E-06,
                       9.46832954E-10, -6.42885005E-14, -4.39231312E+03,
                      -5.42502394E+00])))

species(name='C2H5X(44)',
        atoms='C:2 H:5 X:1',
        thermo=(NASA([100.00, 803.89],
                     [-1.64624290E+00,  3.89625197E-02, -4.31124593E-05,
                       2.97071589E-08, -8.80200440E-12, -8.05992278E+03,
                       9.27319544E+00]),
                NASA([803.89, 5000.00],
                     [ 1.97599860E+00,  2.09382411E-02, -9.47914613E-06,
                       1.81392354E-09, -1.27205831E-13, -8.64227656E+03,
                      -7.41117371E+00])))

species(name='C4H7X(45)',
        atoms='C:4 H:7 X:1',
        thermo=(NASA([100.00, 971.02],
                     [ 2.64368251E+00,  1.79003685E-02,  4.24457324E-05,
                      -6.44047422E-08,  2.49602315E-11, -7.01952687E+03,
                      -6.70003109E+00]),
                NASA([971.02, 5000.00],
                     [ 9.25860008E+00,  2.04066151E-02, -7.39155270E-06,
                       1.37023983E-09, -9.94156257E-14, -9.70696115E+03,
                      -4.56419548E+01])))

species(name='C4H7X(46)',
        atoms='C:4 H:7 X:1',
        thermo=(NASA([100.00, 986.68],
                     [ 2.45797290E+00,  2.47218439E-02,  2.01282012E-05,
                      -4.02730332E-08,  1.62483577E-11,  1.38266194E+03,
                      -5.12988514E+00]),
                NASA([986.68, 5000.00],
                     [ 8.87901611E+00,  2.09043388E-02, -7.83847728E-06,
                       1.44075651E-09, -1.02346191E-13, -9.65709419E+02,
                      -4.15009568E+01])))

species(name='C4H7X(47)',
        atoms='C:4 H:7 X:1',
        thermo=(NASA([100.00, 965.04],
                     [ 2.56885679E+00,  1.97490862E-02,  3.72996972E-05,
                      -6.04065123E-08,  2.40010228E-11, -9.12266684E+03,
                      -8.56593019E+00]),
                NASA([965.04, 5000.00],
                     [ 9.89750247E+00,  1.86147853E-02, -6.38912892E-06,
                       1.17316108E-09, -8.55462900E-14, -1.18988365E+04,
                      -5.07166347E+01])))

species(name='C4H7X(48)',
        atoms='C:4 H:7 X:1',
        thermo=(NASA([100.00, 949.34],
                     [ 2.54262411E+00,  1.77379351E-02,  4.93913107E-05,
                      -7.72926578E-08,  3.10681685E-11, -7.89703345E+03,
                      -8.46811948E+00]),
                NASA([949.34, 5000.00],
                     [ 1.15217625E+01,  1.60010436E-02, -4.89849803E-06,
                       8.84035360E-10, -6.63762686E-14, -1.12284555E+04,
                      -5.98873444E+01])))

species(name='C3H6X(49)',
        atoms='C:3 H:6 X:1',
        thermo=(NASA([100.00, 962.90],
                     [ 2.89772131E+00,  1.49758653E-02,  3.05793111E-05,
                      -4.86354478E-08,  1.92876729E-11, -3.67164201E+03,
                      -9.09774805E+00]),
                NASA([962.90, 5000.00],
                     [ 8.60391092E+00,  1.44744960E-02, -4.78484108E-06,
                       8.74233599E-10, -6.39911212E-14, -5.84619589E+03,
                      -4.19965874E+01])))

species(name='C4H8X(50)',
        atoms='C:4 H:8 X:1',
        thermo=(NASA([100.00, 1076.46],
                     [ 2.22987158E+00,  3.28680946E-02, -3.67131876E-06,
                      -1.27255432E-08,  5.73434943E-12, -5.14078035E+03,
                       6.98841568E+00]),
                NASA([1076.46, 5000.00],
                     [ 7.72832673E+00,  2.48501282E-02, -9.79663128E-06,
                       1.78091114E-09, -1.22693326E-13, -7.04377495E+03,
                      -2.32842555E+01])))

species(name='C3H5X(52)',
        atoms='C:3 H:5 X:1',
        thermo=(NASA([100.00, 939.07],
                     [ 3.23681525E+00,  3.73154944E-03,  6.01020526E-05,
                      -8.16234054E-08,  3.18530809E-11, -5.16593579E+03,
                      -1.35294815E+01]),
                NASA([939.07, 5000.00],
                     [ 9.70188975E+00,  9.48299599E-03, -2.25947885E-06,
                       3.98417297E-10, -3.27107153E-14, -7.84798920E+03,
                      -5.21286116E+01])))

species(name='C2H4X(55)',
        atoms='C:2 H:4 X:1',
        thermo=(NASA([100.00, 922.95],
                     [-1.51743966E+00,  3.54364160E-02, -3.81055319E-05,
                       2.35706536E-08, -6.09806371E-12, -1.37265356E+03,
                       5.77181645E+00]),
                NASA([922.95, 5000.00],
                     [ 2.83447637E+00,  1.65755512E-02, -7.45246257E-06,
                       1.42931809E-09, -1.00637324E-13, -2.17597508E+03,
                      -1.48747324E+01])))

species(name='C4H9X(63)',
        atoms='C:4 H:9 X:1',
        thermo=(NASA([100.00, 1009.34],
                     [ 2.45384267E+00,  2.40992831E-02,  3.11016702E-05,
                      -4.95707962E-08,  1.85297228E-11, -1.53633005E+04,
                      -3.52852897E+00]),
                NASA([1009.34, 5000.00],
                     [ 7.52077606E+00,  2.82414636E-02, -1.10516169E-05,
                       2.04773827E-09, -1.44619150E-13, -1.76199936E+04,
                      -3.41327944E+01])))

species(name='C4H9X(64)',
        atoms='C:4 H:9 X:1',
        thermo=(NASA([100.00, 993.09],
                     [ 2.22649398E+00,  2.86530264E-02,  2.37815365E-05,
                      -4.60602647E-08,  1.82913397E-11, -1.40802850E+04,
                      -3.55142154E+00]),
                NASA([993.09, 5000.00],
                     [ 9.09062474E+00,  2.59568966E-02, -9.83403953E-06,
                       1.80637333E-09, -1.27731585E-13, -1.66740041E+04,
                      -4.28140174E+01])))

species(name='C2H3X2(65)',
        atoms='C:2 H:3 X:2',
        thermo=(NASA([100.00, 1004.66],
                     [-1.52259635E+00,  2.89365313E-02, -2.09432831E-05,
                       3.47310538E-09,  1.51934573E-12,  2.91898741E+03,
                       4.48589698E+00]),
                NASA([1004.66, 5000.00],
                     [ 6.28328690E+00,  7.20184613E-03, -2.44357662E-06,
                       4.54820487E-10, -3.32729776E-14,  8.78972897E+02,
                      -3.55561527E+01])),
        size=2.0)

species(name='H2X(70)',
        atoms='H:2 X:1',
        thermo=(NASA([100.00, 911.32],
                     [-1.27860902E+00,  3.68015330E-02, -8.90316729E-05,
                       8.91160499E-08, -3.14524444E-11, -1.33397505E+03,
                       1.13162042E+01]),
                NASA([911.32, 5000.00],
                     [ 6.45748470E-01,  6.69543366E-03, -3.82678817E-06,
                       7.04696395E-10, -4.41000210E-14, -7.85303832E+02,
                       7.14568126E+00])))

species(name='CHX(71)',
        atoms='C:1 H:1 X:1',
        thermo=(NASA([100.00, 1596.82],
                     [-9.66375286E-01,  1.63179008E-02, -1.75392291E-05,
                       8.64095972E-09, -1.55501482E-12,  2.77751472E+03,
                       2.54982388E+00]),
                NASA([1596.82, 5000.00],
                     [ 4.21481432E+00,  2.18380791E-04,  5.15663412E-07,
                      -1.20801040E-10,  8.35333025E-15,  1.52069846E+03,
                      -2.36254728E+01])))

species(name='C2H2X2(72)',
        atoms='C:2 H:2 X:2',
        thermo=(NASA([100.00, 976.79],
                     [-1.46575023E+00,  3.29483146E-02, -4.23985340E-05,
                       2.73794766E-08, -6.89400810E-12,  8.37856496E+03,
                       5.92056525E+00]),
                NASA([976.79, 5000.00],
                     [ 4.77028273E+00,  7.41140194E-03, -3.18286326E-06,
                       6.14406451E-10, -4.37270172E-14,  7.16030941E+03,
                      -2.40182273E+01])),
        size=2.0)

species(name='C2H2X(79)',
        atoms='C:2 H:2 X:1',
        thermo=(NASA([100.00, 904.29],
                     [-1.76161723E+00,  4.48461515E-02, -8.74239009E-05,
                       7.97504771E-08, -2.67948251E-11,  2.15192264E+04,
                       1.62194338E+01]),
                NASA([904.29, 5000.00],
                     [ 2.96589075E+00,  9.38689723E-03, -4.47397249E-06,
                       8.06979855E-10, -5.16655862E-14,  2.12590281E+04,
                      -2.82361081E+00])))

species(name='C2H2X(80)',
        atoms='C:2 H:2 X:1',
        thermo=(NASA([100.00, 1146.92],
                     [-1.35665820E+00,  2.85337846E-02, -3.11240302E-05,
                       1.70133631E-08, -3.63321309E-12,  1.74003146E+03,
                       3.79543002E+00]),
                NASA([1146.92, 5000.00],
                     [ 4.86808415E+00,  6.82426487E-03, -2.73109304E-06,
                       5.09412825E-10, -3.57465702E-14,  3.12181644E+02,
                      -2.70886136E+01])))

species(name='C2H3X(91)',
        atoms='C:2 H:3 X:1',
        thermo=(NASA([100.00, 808.69],
                     [-1.45264836E+00,  3.42706810E-02, -4.40841426E-05,
                       3.22606409E-08, -9.67619190E-12, -4.94284258E+03,
                       5.13281617E+00]),
                NASA([808.69, 5000.00],
                     [ 2.64803324E+00,  1.39871085E-02, -6.46021660E-06,
                       1.24353615E-09, -8.72724468E-14, -5.60606261E+03,
                      -1.37797660E+01])))

species(name='C3H4X2(92)',
        atoms='C:3 H:4 X:2',
        thermo=(NASA([100.00, 931.26],
                     [ 3.12258453E+00,  7.51496798E-03,  4.55399433E-05,
                      -6.78478318E-08,  2.75635797E-11,  1.13954618E+04,
                      -1.25114823E+01]),
                NASA([931.26, 5000.00],
                     [ 1.04452711E+01,  6.19706265E-03, -8.76175700E-07,
                       1.28161977E-10, -1.29782313E-14,  8.72487827E+03,
                      -5.43335745E+01])),
        size=2.0)

species(name='C4H5X(100)',
        atoms='C:4 H:5 X:1',
        thermo=(NASA([100.00, 936.52],
                     [ 2.68471814E+00,  1.36244384E-02,  5.32592262E-05,
                      -8.32913017E-08,  3.41499632E-11,  7.40535173E+02,
                      -1.06510519E+01]),
                NASA([936.52, 5000.00],
                     [ 1.29012238E+01,  8.96922349E-03, -1.71920361E-06,
                       2.89745198E-10, -2.58686934E-14, -2.88250258E+03,
                      -6.83963240E+01])))

species(name='CX(108)',
        atoms='C:1 X:1',
        thermo=(NASA([100.00, 1401.12],
                     [-6.04857256E-01,  1.10908355E-02, -1.34369676E-05,
                       7.18239043E-09, -1.40685313E-12,  1.44206956E+04,
                       1.48480345E+00]),
                NASA([1401.12, 5000.00],
                     [ 3.08076591E+00, -6.87473269E-04,  5.17593613E-07,
                      -9.73030868E-11,  6.24250814E-15,  1.35112180E+04,
                      -1.70991710E+01])))

species(name='C3H4X(109)',
        atoms='C:3 H:4 X:1',
        thermo=(NASA([100.00, 935.98],
                     [ 3.57494257E+00, -8.24245875E-03,  1.00364262E-04,
                      -1.24030274E-07,  4.69256014E-11,  2.59037560E+03,
                      -9.73433811E+00]),
                NASA([935.98, 5000.00],
                     [ 9.69062724E+00,  1.06601970E-02, -2.10792651E-06,
                       3.67697879E-10, -3.28008295E-14, -5.27279259E+02,
                      -4.93731716E+01])))

species(name='C3H7X(112)',
        atoms='C:3 H:7 X:1',
        thermo=(NASA([100.00, 962.23],
                     [ 2.98506552E+00,  1.18444441E-02,  4.44607028E-05,
                      -6.24981514E-08,  2.38540312E-11, -1.12201827E+04,
                      -8.29651210E+00]),
                NASA([962.23, 5000.00],
                     [ 7.84460007E+00,  1.80194569E-02, -6.28237650E-06,
                       1.14555450E-09, -8.27261519E-14, -1.33764538E+04,
                      -3.78988550E+01])))

species(name='SX(113)',
        atoms='C:5 H:11 X:1',
        thermo=(NASA([100.00, 1193.93],
                     [ 1.82517324E+00,  4.07425103E-02,  3.21347218E-06,
                      -1.94216954E-08,  6.88493646E-12, -1.84161370E+04,
                       7.74148373E-01]),
                NASA([1193.93, 5000.00],
                     [ 6.84580462E+00,  4.01983100E-02, -1.65514953E-05,
                       3.03270931E-09, -2.07681130E-13, -2.07750722E+04,
                      -2.91956211E+01])))

species(name='CH4X(117)',
        atoms='C:1 H:4 X:1',
        thermo=(NASA([100.00, 886.28],
                     [-1.38690949E+00,  4.00454988E-02, -8.37934254E-05,
                       8.75675578E-08, -3.27887531E-11, -1.09112170E+04,
                       1.78812283E+01]),
                NASA([886.28, 5000.00],
                     [-2.16839093E+00,  1.99492654E-02, -9.80004492E-06,
                       1.83534461E-09, -1.22520122E-13, -9.84489084E+03,
                       2.67913137E+01])))

species(name='SX(118)',
        atoms='C:3 H:6 X:2',
        thermo=(NASA([100.00, 948.69],
                     [ 3.07116842E+00,  8.61098775E-03,  5.12623464E-05,
                      -7.15327621E-08,  2.77663502E-11, -9.04394593E+03,
                      -1.06063320E+01]),
                NASA([948.69, 5000.00],
                     [ 8.95064015E+00,  1.37757185E-02, -4.26566869E-06,
                       7.70325890E-10, -5.76137190E-14, -1.15074836E+04,
                      -4.57661057E+01])),
        size=2.0)

species(name='C3H6X(119)',
        atoms='C:3 H:6 X:1',
        thermo=(NASA([100.00, 1035.72],
                     [ 2.98024820E+00,  1.75590729E-02,  1.08418409E-05,
                      -2.10409515E-08,  7.89096751E-12, -6.15031523E+02,
                       6.01484084E+00]),
                NASA([1035.72, 5000.00],
                     [ 5.68309792E+00,  1.86001658E-02, -7.29146255E-06,
                       1.33238768E-09, -9.25360082E-14, -1.79063155E+03,
                      -1.00921328E+01])))

species(name='C3H5X(120)',
        atoms='C:3 H:5 X:1',
        thermo=(NASA([100.00, 946.03],
                     [ 3.27689253E+00,  3.84303847E-03,  5.69835401E-05,
                      -7.61313850E-08,  2.92917485E-11, -6.95338420E+03,
                      -1.34282450E+01]),
                NASA([946.03, 5000.00],
                     [ 8.81706372E+00,  1.11129322E-02, -3.21281122E-06,
                       5.86591229E-10, -4.55834682E-14, -9.37515497E+03,
                      -4.71085119E+01])))

species(name='C3H5X(121)',
        atoms='C:3 H:5 X:1',
        thermo=(NASA([100.00, 1066.13],
                     [ 2.92676570E+00,  1.90084099E-02,  3.91390776E-06,
                      -1.44187265E-08,  5.70876333E-12, -4.86343705E+02,
                      -1.03086764E+01]),