units(length='cm', time='s', quantity='mol', act_energy='kcal/mol')

ideal_gas(name='gas',
          elements="H D T C Ci O Oi N Ne Ar He Si S F Cl Br I X",
          species="""n-heptane   Ar          He          Ne
                     N2          C2H4(2)     C4H8-1(3)   C4H8-2(4)
                     H2(17)      C3H6(34)    C2H6(75)    C4H10(81)
                     CH4(92)     C3H8(192)   C6H14(197)  C5H12(364)""",
          initial_state=state(temperature=300.0, pressure=OneAtm))

ideal_interface(name='surface1',
                elements="H D T C Ci O Oi N Ne Ar He Si S F Cl Br I X",
                species="""X(1)        HX(5)       C2H3X(37)   CH2X(38)
                          C2H4X(39)   allylX(40)  CH3X(41)    C2H5X(42)
                          C4H7X(43)   C4H7X(44)   C4H7X(45)   C4H7X(46)
                          C3H6X(47)   C4H8X(48)   C3H5X(49)   C2H4X(52)
                          C4H9X(60)   C4H9X(61)   H2X(62)     C2H2X(65)
                          C6H13X(71)  C6H13X(72)  C6H13X(73)  CH4X(74)
                          C2H6X(76)   C3H7X(77)   C3H6X(78)   C3H8X(80)
                          C4H10X(82)  C2H3X(84)   C3H5X(87)   C3H5X(88)
                          CHX(93)     C3H7X(94)   CX(97)      C4H6X(98)
                          SX(111)     SX(131)     SX(132)     SX(134)
                          SX(135)     SX(139)     SX(142)     SX(159)
                          SX(162)     C5H9X(165)  SX(167)     SX(169)
                          SX(180)     SX(184)     SX(185)     SX(186)
                          C4H9X(193)  C4H7X(210)  SX(218)     SX(230)
                          C3H4X(237)  SX(257)     C4H6X(279)  C4H8X(285)
                          SX(293)     C5H9X(298)  C5H8X(300)  C4H5X(329)
                          SX(332)     SX(351)     C3H3X(446)  C5H9X(448)
                          SX(456)     C5H8X(465)  SX(471)     C5H9X(478)
                          SX(479)     SX(513)     C5H9X(527)  C5H7X(551)
                          SX(579)     SX(580)     SX(772)     C6H9X(842)
                          C5H9X(943)  C5H9X(944)  SX(1129)    SX(1241)
                          SX(1842)    SX(2316)    SX(2402)    SX(2595)
                          SX(2596)    SX(2597)    SX(2598)    SX(2692)
                          SX(3478)    SX(3585)    SX(3587)    SX(3932)
                          SX(4150)    SX(4293)""",
                site_density=2.483e-09,
                phases="gas",
          reactions='all',
                initial_state=state(temperature=300.0, pressure=OneAtm))

#-------------------------------------------------------------------------------
# Element data
#-------------------------------------------------------------------------------

element(symbol='Ci', atomic_mass=13.003)
element(symbol='D', atomic_mass=2.014)
element(symbol='Oi', atomic_mass=17.999)
element(symbol='T', atomic_mass=3.016)
element(symbol='X', atomic_mass=195.083)
#-------------------------------------------------------------------------------
# Species data
#-------------------------------------------------------------------------------

species(name='n-heptane',
        atoms='C:7 H:16',
        thermo=(NASA([100.00, 1262.75],
                     [-2.93512125E-03,  7.69375610E-02, -3.48031525E-05,
                       1.86160506E-09,  2.01550529E-12, -2.57829334E+04,
                       3.00312819E+01]),
                NASA([1262.75, 5000.00],
                     [ 1.38379971E+01,  4.85941816E-02, -1.95472819E-05,
                       3.52833289E-09, -2.39061569E-13, -3.05142526E+04,
                      -4.48654615E+01])))

species(name='Ar',
        atoms='Ar:1',
        thermo=(NASA([200.00, 1000.00],
                     [ 2.50000000E+00,  0.00000000E+00,  0.00000000E+00,
                       0.00000000E+00,  0.00000000E+00, -7.45375000E+02,
                       4.37967000E+00]),
                NASA([1000.00, 6000.00],
                     [ 2.50000000E+00,  0.00000000E+00,  0.00000000E+00,
                       0.00000000E+00,  0.00000000E+00, -7.45375000E+02,
                       4.37967000E+00])))

species(name='He',
        atoms='He:1',
        thermo=(NASA([200.00, 1000.00],
                     [ 2.50000000E+00,  0.00000000E+00,  0.00000000E+00,
                       0.00000000E+00,  0.00000000E+00, -7.45375000E+02,
                       9.28724000E-01]),
                NASA([1000.00, 6000.00],
                     [ 2.50000000E+00,  0.00000000E+00,  0.00000000E+00,
                       0.00000000E+00,  0.00000000E+00, -7.45375000E+02,
                       9.28724000E-01])))

species(name='Ne',
        atoms='Ne:1',
        thermo=(NASA([200.00, 1000.00],
                     [ 2.50000000E+00,  0.00000000E+00,  0.00000000E+00,
                       0.00000000E+00,  0.00000000E+00, -7.45375000E+02,
                       3.35532000E+00]),
                NASA([1000.00, 6000.00],
                     [ 2.50000000E+00,  0.00000000E+00,  0.00000000E+00,
                       0.00000000E+00,  0.00000000E+00, -7.45375000E+02,
                       3.35532000E+00])))

species(name='N2',
        atoms='N:2',
        thermo=(NASA([200.00, 1000.00],
                     [ 3.53101000E+00, -1.23661000E-04, -5.02999000E-07,
                       2.43531000E-09, -1.40881000E-12, -1.04698000E+03,
                       2.96747000E+00]),
                NASA([1000.00, 6000.00],
                     [ 2.95258000E+00,  1.39690000E-03, -4.92632000E-07,
                       7.86010000E-11, -4.60755000E-15, -9.23949000E+02,
                       5.87189000E+00])))

species(name='C2H4(2)',
        atoms='C:2 H:4',
        thermo=(NASA([100.00, 979.37],
                     [ 3.97469045E+00, -4.75813325E-03,  4.16772624E-05,
                      -4.51377676E-08,  1.54218287E-11,  4.91540855E+03,
                       3.62439976E+00]),
                NASA([979.37, 5000.00],
                     [ 3.55670229E+00,  1.10625819E-02, -4.17009559E-06,
                       7.85564219E-10, -5.70042086E-14,  4.32042473E+03,
                       2.17665377E+00])))

species(name='C4H8-1(3)',
        atoms='C:4 H:8',
        thermo=(NASA([100.00, 1007.28],
                     [ 2.58772978E+00,  2.32777883E-02,  1.93412653E-05,
                      -3.55496729E-08,  1.36906178E-11, -1.91872929E+03,
                       1.45750592E+01]),
                NASA([1007.28, 5000.00],
                     [ 7.20516863E+00,  2.36361619E-02, -9.03150325E-06,
                       1.65392736E-09, -1.16019318E-13, -3.79733809E+03,
                      -1.24426086E+01])))

species(name='C4H8-2(4)',
        atoms='C:4 H:8',
        thermo=(NASA([100.00, 1157.78],
                     [ 2.51999305E+00,  2.76811707E-02,  9.44135366E-07,
                      -1.25013222E-08,  4.67160311E-12, -3.34374810E+03,
                       1.30195268E+01]),
                NASA([1157.78, 5000.00],
                     [ 6.04218222E+00,  2.60073554E-02, -1.04844041E-05,
                       1.90882450E-09, -1.30601743E-13, -4.86273126E+03,
                      -7.52672501E+00])))

species(name='H2(17)',
        atoms='H:2',
        thermo=(NASA([100.00, 1959.08],
                     [ 3.43536411E+00,  2.12710383E-04, -2.78625110E-07,
                       3.40267219E-10, -7.76032129E-14, -1.03135984E+03,
                      -3.90841731E+00]),
                NASA([1959.08, 5000.00],
                     [ 2.78816619E+00,  5.87640475E-04,  1.59010635E-07,
                      -5.52739465E-11,  4.34311304E-15, -5.96144481E+02,
                       1.12730527E-01])))

species(name='C3H6(34)',
        atoms='C:3 H:6',
        thermo=(NASA([100.00, 983.75],
                     [ 3.31912202E+00,  8.17957465E-03,  3.34736557E-05,
                      -4.36194260E-08,  1.58213614E-11,  7.49325285E+02,
                       9.54024700E+00]),
                NASA([983.75, 5000.00],
                     [ 5.36754789E+00,  1.70743084E-02, -6.35108004E-06,
                       1.16619619E-09, -8.27621023E-14, -4.87136723E+02,
                      -4.54465373E+00])))

species(name='C2H6(75)',
        atoms='C:2 H:6',
        thermo=(NASA([100.00, 1012.42],
                     [ 3.72239308E+00,  1.65083640E-03,  3.44175601E-05,
                      -3.76858321E-08,  1.24450696E-11, -1.15575902E+04,
                       4.68247939E+00]),
                NASA([1012.42, 5000.00],
                     [ 2.82848184E+00,  1.73040581E-02, -6.73334315E-06,
                       1.23742041E-09, -8.65676548E-14, -1.19978077E+04,
                       5.93812118E+00])))

species(name='C4H10(81)',
        atoms='C:4 H:10',
        thermo=(NASA([100.00, 1147.60],
                     [ 2.16918887E+00,  3.43904101E-02, -1.61547012E-06,
                      -1.30728593E-08,  5.17358217E-12, -1.72505138E+04,
                       1.46546529E+01]),
                NASA([1147.60, 5000.00],
                     [ 6.78899599E+00,  3.03598725E-02, -1.21262363E-05,
                       2.19945742E-09, -1.50289895E-13, -1.91057812E+04,
                      -1.17327118E+01])))

species(name='CH4(92)',
        atoms='C:1 H:4',
        thermo=(NASA([100.00, 1084.15],
                     [ 4.20540072E+00, -5.35540640E-03,  2.51117636E-05,
                      -2.13755910E-08,  5.97496145E-12, -1.01619427E+04,
                      -9.21226951E-01]),
                NASA([1084.15, 5000.00],
                     [ 9.08349401E-01,  1.14539479E-02, -4.57166053E-06,
                       8.29173612E-10, -5.66300105E-14, -9.72001110E+03,
                       1.39926204E+01])))

species(name='C3H8(192)',
        atoms='C:3 H:8',
        thermo=(NASA([100.00, 989.99],
                     [ 3.06337235E+00,  1.29213276E-02,  3.47037401E-05,
                      -4.70952219E-08,  1.71386763E-11, -1.43905793E+04,
                       1.07835211E+01]),
                NASA([989.99, 5000.00],
                     [ 5.60435845E+00,  2.19529500E-02, -8.22084738E-06,
                       1.50104968E-09, -1.05636167E-13, -1.58393862E+04,
                      -6.22599672E+00])))

species(name='C6H14(197)',
        atoms='C:6 H:14',
        thermo=(NASA([100.00, 1237.13],
                     [ 9.36168930E-01,  5.80634071E-02, -1.05209441E-05,
                      -1.36307211E-08,  5.73390960E-12, -2.34249395E+04,
                       2.40003868E+01]),
                NASA([1237.13, 5000.00],
                     [ 1.03163526E+01,  4.66435017E-02, -1.96012235E-05,
                       3.61723458E-09, -2.48218670E-13, -2.71928433E+04,
                      -2.90978404E+01])))

species(name='C5H12(364)',
        atoms='C:5 H:12',
        thermo=(NASA([100.00, 1083.73],
                     [ 1.61171840E+00,  4.32471140E-02,  5.74844219E-06,
                      -2.75121475E-08,  1.08074793E-11, -2.00565280E+04,
                       1.98945417E+01]),
                NASA([1083.73, 5000.00],
                     [ 8.53699593E+00,  3.80811836E-02, -1.53301570E-05,
                       2.81974175E-09, -1.95504979E-13, -2.27552204E+04,
                      -1.95984354E+01])))

species(name='X(1)',
        atoms='X:1',
        thermo=(NASA([100.00, 1554.81],
                     [ 7.10134880E-03, -4.25615041E-05,  8.98521156E-08,
                      -7.80182565E-11,  2.32462166E-14, -8.76099414E-01,
                      -3.11209498E-02]),
                NASA([1554.81, 5000.00],
                     [ 1.60301287E-01, -2.52237396E-04,  1.14182282E-07,
                      -1.21473809E-11,  3.85806589E-16, -7.08108147E+01,
                      -9.09535600E-01])))

species(name='HX(5)',
        atoms='H:1 X:1',
        thermo=(NASA([100.00, 952.91],
                     [-3.80957846E-01,  5.47219393E-03,  2.60946928E-06,
                      -9.65008412E-09,  4.63967474E-12, -5.95314464E+03,
                       1.01722845E+00]),
                NASA([952.91, 5000.00],
                     [ 2.80337105E+00, -5.41002993E-04,  4.99482316E-07,
                      -7.54902555E-11,  3.06721398E-15, -6.89388323E+03,
                      -1.59435356E+01])))

species(name='C2H3X(37)',
        atoms='C:2 H:3 X:1',
        thermo=(NASA([100.00, 928.60],
                     [ 3.83104022E+00, -8.76542826E-03,  6.98017027E-05,
                      -8.68052566E-08,  3.33256145E-11, -1.35270051E+03,
                      -1.81156365E+01]),
                NASA([928.60, 5000.00],
                     [ 8.78015372E+00,  1.92565992E-03,  8.25424482E-07,
                      -1.63654020E-10,  5.70926320E-15, -3.65193853E+03,
                      -4.90566656E+01])))

species(name='CH2X(38)',
        atoms='C:1 H:2 X:1',
        thermo=(NASA([100.00, 1199.84],
                     [-1.02006572E+00,  2.03778530E-02, -2.17291021E-05,
                       1.15868493E-08, -2.38469826E-12,  3.73581276E+03,
                       2.99160375E+00]),
                NASA([1199.84, 5000.00],
                     [ 3.89285623E+00,  3.99892031E-03, -1.25227793E-06,
                       2.09081002E-10, -1.39642186E-14,  2.55689335E+03,
                      -2.16053785E+01])))

species(name='C2H4X(39)',
        atoms='C:2 H:4 X:1',
        thermo=(NASA([100.00, 940.15],
                     [ 3.88315385E+00, -7.62009644E-03,  6.32690924E-05,
                      -7.52917906E-08,  2.79387134E-11,  4.42964526E+03,
                      -1.23953225E+01]),
                NASA([940.15, 5000.00],
                     [ 6.60946016E+00,  6.91796044E-03, -1.62830580E-06,
                       2.98562998E-10, -2.53033988E-14,  2.76189237E+03,
                      -3.15232178E+01])))

species(name='allylX(40)',
        atoms='C:3 H:5 X:1',
        thermo=(NASA([100.00, 937.35],
                     [ 3.44141096E+00, -3.47613301E-03,  8.25901551E-05,
                      -1.05552399E-07,  4.04425050E-11, -2.11676142E+03,
                      -6.88821738E+00]),
                NASA([937.35, 5000.00],
                     [ 9.98170901E+00,  8.92230554E-03, -1.75420228E-06,
                       3.12232383E-10, -2.84111933E-14, -5.11365202E+03,
                      -4.74639238E+01])))

species(name='CH3X(41)',
        atoms='C:1 H:3 X:1',
        thermo=(NASA([100.00, 848.30],
                     [-1.21090611E+00,  2.92390831E-02, -4.49011672E-05,
                       3.86010689E-08, -1.30361474E-11, -4.07624723E+03,
                       6.80940157E+00]),
                NASA([848.30, 5000.00],
                     [ 1.62291116E+00,  1.12987225E-02, -5.08316650E-06,
                       9.46832954E-10, -6.42885005E-14, -4.39231312E+03,
                      -5.42502394E+00])))

species(name='C2H5X(42)',
        atoms='C:2 H:5 X:1',
        thermo=(NASA([100.00, 803.89],
                     [-1.64624290E+00,  3.89625197E-02, -4.31124593E-05,
                       2.97071589E-08, -8.80200440E-12, -8.05992278E+03,
                       9.27319544E+00]),
                NASA([803.89, 5000.00],
                     [ 1.97599860E+00,  2.09382411E-02, -9.47914613E-06,
                       1.81392354E-09, -1.27205831E-13, -8.64227656E+03,
                      -7.41117371E+00])))

species(name='C4H7X(43)',
        atoms='C:4 H:7 X:1',
        thermo=(NASA([100.00, 971.02],
                     [ 2.64368251E+00,  1.79003685E-02,  4.24457324E-05,
                      -6.44047422E-08,  2.49602315E-11, -7.01952687E+03,
                      -6.70003109E+00]),
                NASA([971.02, 5000.00],
                     [ 9.25860008E+00,  2.04066151E-02, -7.39155270E-06,
                       1.37023983E-09, -9.94156257E-14, -9.70696115E+03,
                      -4.56419548E+01])))

species(name='C4H7X(44)',
        atoms='C:4 H:7 X:1',
        thermo=(NASA([100.00, 986.68],
                     [ 2.45797290E+00,  2.47218439E-02,  2.01282012E-05,
                      -4.02730332E-08,  1.62483577E-11,  1.38266194E+03,
                      -5.12988514E+00]),
                NASA([986.68, 5000.00],
                     [ 8.87901611E+00,  2.09043388E-02, -7.83847728E-06,
                       1.44075651E-09, -1.02346191E-13, -9.65709419E+02,
                      -4.15009568E+01])))

species(name='C4H7X(45)',
        atoms='C:4 H:7 X:1',
        thermo=(NASA([100.00, 965.04],
                     [ 2.56885679E+00,  1.97490862E-02,  3.72996972E-05,
                      -6.04065123E-08,  2.40010228E-11, -9.12266684E+03,
                      -8.56593019E+00]),
                NASA([965.04, 5000.00],
                     [ 9.89750247E+00,  1.86147853E-02, -6.38912892E-06,
                       1.17316108E-09, -8.55462900E-14, -1.18988365E+04,
                      -5.07166347E+01])))

species(name='C4H7X(46)',
        atoms='C:4 H:7 X:1',
        thermo=(NASA([100.00, 949.34],
                     [ 2.54262411E+00,  1.77379351E-02,  4.93913107E-05,
                      -7.72926578E-08,  3.10681685E-11, -7.89703345E+03,
                      -8.46811948E+00]),
                NASA([949.34, 5000.00],
                     [ 1.15217625E+01,  1.60010436E-02, -4.89849803E-06,
                       8.84035360E-10, -6.63762686E-14, -1.12284555E+04,
                      -5.98873444E+01])))

species(name='C3H6X(47)',
        atoms='C:3 H:6 X:1',
        thermo=(NASA([100.00, 962.90],
                     [ 2.89772131E+00,  1.49758653E-02,  3.05793111E-05,
                      -4.86354478E-08,  1.92876729E-11, -3.67164201E+03,
                      -9.09774805E+00]),
                NASA([962.90, 5000.00],
                     [ 8.60391092E+00,  1.44744960E-02, -4.78484108E-06,
                       8.74233599E-10, -6.39911212E-14, -5.84619589E+03,
                      -4.19965874E+01])))

species(name='C4H8X(48)',
        atoms='C:4 H:8 X:1',
        thermo=(NASA([100.00, 1076.46],
                     [ 2.22987158E+00,  3.28680946E-02, -3.67131876E-06,
                      -1.27255432E-08,  5.73434943E-12, -5.14078035E+03,
                       6.98841568E+00]),
                NASA([1076.46, 5000.00],
                     [ 7.72832673E+00,  2.48501282E-02, -9.79663128E-06,
                       1.78091114E-09, -1.22693326E-13, -7.04377495E+03,
                      -2.32842555E+01])))

species(name='C3H5X(49)',
        atoms='C:3 H:5 X:1',
        thermo=(NASA([100.00, 939.07],
                     [ 3.23681525E+00,  3.73154944E-03,  6.01020526E-05,
                      -8.16234054E-08,  3.18530809E-11, -5.16593579E+03,
                      -1.35294815E+01]),
                NASA([939.07, 5000.00],
                     [ 9.70188975E+00,  9.48299599E-03, -2.25947885E-06,
                       3.98417297E-10, -3.27107153E-14, -7.84798920E+03,
                      -5.21286116E+01])))

species(name='C2H4X(52)',
        atoms='C:2 H:4 X:1',
        thermo=(NASA([100.00, 922.95],
                     [-1.51743966E+00,  3.54364160E-02, -3.81055319E-05,
                       2.35706536E-08, -6.09806371E-12, -1.37265356E+03,
                       5.77181645E+00]),
                NASA([922.95, 5000.00],
                     [ 2.83447637E+00,  1.65755512E-02, -7.45246257E-06,
                       1.42931809E-09, -1.00637324E-13, -2.17597508E+03,
                      -1.48747324E+01])))

species(name='C4H9X(60)',
        atoms='C:4 H:9 X:1',
        thermo=(NASA([100.00, 1009.34],
                     [ 2.45384267E+00,  2.40992831E-02,  3.11016702E-05,
                      -4.95707962E-08,  1.85297228E-11, -1.53633005E+04,
                      -3.52852897E+00]),
                NASA([1009.34, 5000.00],
                     [ 7.52077606E+00,  2.82414636E-02, -1.10516169E-05,
                       2.04773827E-09, -1.44619150E-13, -1.76199936E+04,
                      -3.41327944E+01])))

species(name='C4H9X(61)',
        atoms='C:4 H:9 X:1',
        thermo=(NASA([100.00, 993.09],
                     [ 2.22649398E+00,  2.86530264E-02,  2.37815365E-05,
                      -4.60602647E-08,  1.82913397E-11, -1.40802850E+04,
                      -3.55142154E+00]),
                NASA([993.09, 5000.00],
                     [ 9.09062474E+00,  2.59568966E-02, -9.83403953E-06,
                       1.80637333E-09, -1.27731585E-13, -1.66740041E+04,
                      -4.28140174E+01])))

species(name='H2X(62)',
        atoms='H:2 X:1',
        thermo=(NASA([100.00, 911.32],
                     [-1.27860902E+00,  3.68015330E-02, -8.90316729E-05,
                       8.91160499E-08, -3.14524444E-11, -1.33397505E+03,
                       1.13162042E+01]),
                NASA([911.32, 5000.00],
                     [ 6.45748470E-01,  6.69543366E-03, -3.82678817E-06,
                       7.04696395E-10, -4.41000210E-14, -7.85303832E+02,
                       7.14568126E+00])))

species(name='C2H2X(65)',
        atoms='C:2 H:2 X:1',
        thermo=(NASA([100.00, 1146.92],
                     [-1.35665820E+00,  2.85337846E-02, -3.11240302E-05,
                       1.70133631E-08, -3.63321309E-12,  1.74003146E+03,
                       3.79543002E+00]),
                NASA([1146.92, 5000.00],
                     [ 4.86808415E+00,  6.82426487E-03, -2.73109304E-06,
                       5.09412825E-10, -3.57465702E-14,  3.12181644E+02,
                      -2.70886136E+01])))

species(name='C6H13X(71)',
        atoms='C:6 H:13 X:1',
        thermo=(NASA([100.00, 1130.03],
                     [ 1.07506191E+00,  5.48323022E-02, -5.85590070E-06,
                      -1.87591600E-08,  7.94133363E-12, -2.11569795E+04,
                       6.68463407E+00]),
                NASA([1130.03, 5000.00],
                     [ 9.23604169E+00,  4.49491400E-02, -1.79634615E-05,
                       3.26617478E-09, -2.23871575E-13, -2.42148202E+04,
                      -3.90539292E+01])))

species(name='C6H13X(72)',
        atoms='C:6 H:13 X:1',
        thermo=(NASA([100.00, 1104.49],
                     [ 9.11727952E-01,  5.71187364E-02, -4.42099107E-06,
                      -2.31823222E-08,  9.89574697E-12, -2.04945777E+04,
                       4.93078500E+00]),
                NASA([1104.49, 5000.00],
                     [ 1.03932270E+01,  4.50091012E-02, -1.81629213E-05,
                       3.33344658E-09, -2.30372468E-13, -2.39448520E+04,
                      -4.78920572E+01])))

species(name='C6H13X(73)',
        atoms='C:6 H:13 X:1',
        thermo=(NASA([100.00, 1210.10],
                     [ 1.10829393E+00,  5.37305715E-02, -6.36959419E-07,
                      -2.23981043E-08,  8.32675983E-12, -2.17704316E+04,
                       5.70636748E+00]),
                NASA([1210.10, 5000.00],
                     [ 9.93886732E+00,  4.70613564E-02, -2.02855378E-05,
                       3.80586226E-09, -2.64097040E-13, -2.55564798E+04,
                      -4.53930264E+01])))

species(name='CH4X(74)',
        atoms='C:1 H:4 X:1',
        thermo=(NASA([100.00, 886.28],
                     [-1.38690949E+00,  4.00454988E-02, -8.37934254E-05,
                       8.75675578E-08, -3.27887531E-11, -1.09112170E+04,
                       1.78812283E+01]),
                NASA([886.28, 5000.00],
                     [-2.16839093E+00,  1.99492654E-02, -9.80004492E-06,
                       1.83534461E-09, -1.22520122E-13, -9.84489084E+03,
                       2.67913137E+01])))

species(name='C2H6X(76)',
        atoms='C:2 H:6 X:1',
        thermo=(NASA([100.00, 826.24],
                     [-1.73426428E+00,  4.32689702E-02, -6.15059592E-05,
                       5.72992790E-08, -2.14162386E-11, -1.40653296E+04,
                       1.90797877E+01]),
                NASA([826.24, 5000.00],
                     [-4.52002447E-01,  2.66243113E-02, -1.23405581E-05,
                       2.34092022E-09, -1.61301921E-13, -1.39209692E+04,
                       1.52942205E+01])))

species(name='C3H7X(77)',
        atoms='C:3 H:7 X:1',
        thermo=(NASA([100.00, 962.23],
                     [ 2.98506552E+00,  1.18444441E-02,  4.44607028E-05,
                      -6.24981514E-08,  2.38540312E-11, -1.12201827E+04,
                      -8.29651210E+00]),
                NASA([962.23, 5000.00],
                     [ 7.84460007E+00,  1.80194569E-02, -6.28237650E-06,
                       1.14555450E-09, -8.27261519E-14, -1.33764538E+04,
                      -3.78988550E+01])))

species(name='C3H6X(78)',
        atoms='C:3 H:6 X:1',
        thermo=(NASA([100.00, 1035.72],
                     [ 2.98024820E+00,  1.75590729E-02,  1.08418409E-05,
                      -2.10409515E-08,  7.89096751E-12, -6.15031523E+02,
                       6.01484084E+00]),
                NASA([1035.72, 5000.00],
                     [ 5.68309792E+00,  1.86001658E-02, -7.29146255E-06,
                       1.33238768E-09, -9.25360082E-14, -1.79063155E+03,
                      -1.00921328E+01])))

species(name='C3H8X(80)',
        atoms='C:3 H:8 X:1',
        thermo=(NASA([100.00, 1037.07],
                     [ 2.71701341E+00,  2.23899983E-02,  1.20439723E-05,
                      -2.46114736E-08,  9.27181183E-12, -1.76131395E+04,
                       3.15477321E+00]),
                NASA([1037.07, 5000.00],
                     [ 5.99089635E+00,  2.33889933E-02, -9.10990761E-06,
                       1.65660449E-09, -1.14636514E-13, -1.90249623E+04,
                      -1.62918838E+01])))

species(name='C4H10X(82)',
        atoms='C:4 H:10 X:1',
        thermo=(NASA([100.00, 2348.92],
                     [ 1.82235212E+00,  4.35808960E-02, -2.21646451E-05,
                       5.35325892E-09, -5.13006434E-13, -2.04722226E+04,
                       7.04930629E+00]),
                NASA([2348.92, 5000.00],
                     [ 1.51325887E+01,  2.09141437E-02, -7.68946116E-06,
                       1.24482447E-09, -7.57261437E-14, -2.67249894E+04,
                      -6.85308826E+01])))

species(name='C2H3X(84)',
        atoms='C:2 H:3 X:1',
        thermo=(NASA([100.00, 808.69],
                     [-1.45264836E+00,  3.42706810E-02, -4.40841426E-05,
                       3.22606409E-08, -9.67619190E-12, -4.94284258E+03,
                       5.13281617E+00]),
                NASA([808.69, 5000.00],
                     [ 2.64803324E+00,  1.39871085E-02, -6.46021660E-06,
                       1.24353615E-09, -8.72724468E-14, -5.60606261E+03,
                      -1.37797660E+01])))

species(name='C3H5X(87)',
        atoms='C:3 H:5 X:1',
        thermo=(NASA([100.00, 946.03],
                     [ 3.27689253E+00,  3.84303847E-03,  5.69835401E-05,
                      -7.61313850E-08,  2.92917485E-11, -6.95338420E+03,
                      -1.34282450E+01]),
                NASA([946.03, 5000.00],
                     [ 8.81706372E+00,  1.11129322E-02, -3.21281122E-06,
                       5.86591229E-10, -4.55834682E-14, -9.37515497E+03,
                      -4.71085119E+01])))

species(name='C3H5X(88)',
        atoms='C:3 H:5 X:1',
        thermo=(NASA([100.00, 1066.13],
                     [ 2.92676570E+00,  1.90084099E-02,  3.91390776E-06,
                      -1.44187265E-08,  5.70876333E-12, -4.86343705E+02,
                      -1.03086764E+01]),
                NASA([1066.13, 5000.00],
                     [ 6.42204968E+00,  1.61952369E-02, -6.62078306E-06,
                       1.23127042E-09, -8.61438230E-14, -1.81703729E+03,
                      -3.01407046E+01])))

species(name='CHX(93)',
        atoms='C:1 H:1 X:1',
        thermo=(NASA([100.00, 1596.82],
                     [-9.66375286E-01,  1.63179008E-02, -1.75392291E-05,
                       8.64095972E-09, -1.55501482E-12,  2.77751472E+03,
                       2.54982388E+00]),
                NASA([1596.82, 5000.00],
                     [ 4.21481432E+00,  2.18380791E-04,  5.15663412E-07,
                      -1.20801040E-10,  8.35333025E-15,  1.52069846E+03,
                      -2.36254728E+01])))

species(name='C3H7X(94)',
        atoms='C:3 H:7 X:1',
        thermo=(NASA([100.00, 984.83],
                     [ 3.19460135E+00,  8.22735124E-03,  4.84182560E-05,
                      -6.16363127E-08,  2.22430963E-11, -1.26785983E+04,
                      -8.79480736E+00]),
                NASA([984.83, 5000.00],
                     [ 5.96239881E+00,  2.11445286E-02, -8.05289898E-06,
                       1.50044325E-09, -1.07567598E-13, -1.43953226E+04,
                      -2.80535944E+01])))

species(name='CX(97)',
        atoms='C:1 X:1',
        thermo=(NASA([100.00, 1401.12],
                     [-6.04857256E-01,  1.10908355E-02, -1.34369676E-05,
                       7.18239043E-09, -1.40685313E-12,  1.44206956E+04,
                       1.48480345E+00]),
                NASA([1401.12, 5000.00],
                     [ 3.08076591E+00, -6.87473269E-04,  5.17593613E-07,
                      -9.73030868E-11,  6.24250814E-15,  1.35112180E+04,
                      -1.70991710E+01])))

species(name='C4H6X(98)',
        atoms='C:4 H:6 X:1',
        thermo=(NASA([100.00, 1023.17],
                     [ 2.40014322E+00,  2.85396048E-02,  6.30703076E-07,
                      -1.80017709E-08,  8.10084465E-12,  2.92850851E+02,
                      -7.28045747E+00]),
                NASA([1023.17, 5000.00],
                     [ 8.63170755E+00,  1.90458832E-02, -7.24837792E-06,
                       1.33445680E-09, -9.39704356E-14, -1.76058722E+03,
                      -4.12900231E+01])))

species(name='SX(111)',
        atoms='C:5 H:10 X:1',
        thermo=(NASA([100.00, 2299.52],
                     [ 2.47624978E+00,  4.59734908E-02, -2.05506330E-05,
                       3.15723128E-09, -7.53764531E-14, -8.22912695E+03,
                       7.20506754E+00]),
                NASA([2299.52, 5000.00],
                     [ 2.43059045E+01,  1.76793922E-02, -8.40747201E-06,
                       1.46708752E-09, -9.06197721E-14, -2.08275449E+04,