units(length='cm', time='s', quantity='mol', act_energy='kcal/mol')

ideal_gas(name='gas',
          elements="H D T C Ci O Oi N Ne Ar He Si S F Cl Br I X",
          species="""n-heptane   Ar          He          Ne
                     N2          C2H4(2)     C4H8-1(3)   C4H8-2(4)
                     H2(17)      C2H6(73)    C4H10(77)   C4H8(193)
                     C6H12(199)  C6H14(251)  C6H14(281)  C4H10(302)
                     C6H14(308)  C6H12(377)  C6H12(416)  C6H14(537)
                     C8H16(628)  C6H12(723)  C6H14(730)  S(2611)
                     S(3116)     S(11724)""",
          reactions='gas-*',
          initial_state=state(temperature=300.0, pressure=OneAtm))

ideal_interface(name='surface1',
                elements="H D T C Ci O Oi N Ne Ar He Si S F Cl Br I X",
                species="""X(1)        HX(5)       C2H3X(37)   C2H5X(41)
                          C4H7X(42)   C4H7X(43)   C4H7X(44)   C4H7X(45)
                          C4H7X(48)   C4H7X(49)   C2H4X(50)   C4H9X(57)
                          C4H9X(58)   C2H2X(60)   C4H6X(64)   C2H3X(66)
                          C4H5X(68)   C6H13X(70)  C6H13X(71)  C6H13X(72)
                          C4H8X(74)   C4H7X(76)   C4H6X(82)   C4H8X(84)
                          C4H7X(140)  SX(150)     SX(173)     C4H6X(188)
                          C4H5X(217)  SX(243)     SX(244)     SX(245)
                          SX(246)     SX(247)     SX(253)     SX(255)
                          SX(264)     SX(266)     C4H9X(273)  SX(274)
                          SX(275)     SX(276)     SX(277)     SX(278)
                          SX(280)     SX(282)     SX(288)     SX(290)
                          C4H9X(296)  C4H8X(297)  SX(298)     SX(299)
                          SX(300)     SX(301)     SX(304)     SX(310)
                          SX(312)     SX(322)     SX(324)     C4H7X(333)
                          C4H7X(334)  SX(337)     SX(348)     SX(349)
                          SX(351)     SX(356)     SX(363)     SX(364)
                          SX(366)     SX(378)     SX(379)     SX(399)
                          SX(401)     SX(403)     SX(437)     SX(439)
                          SX(441)     C4H6X(449)  C4H5X(489)  SX(529)
                          SX(530)     SX(531)     SX(532)     SX(534)
                          SX(536)     SX(538)     SX(539)     SX(546)
                          SX(548)     SX(555)     SX(558)     SX(576)
                          SX(577)     SX(578)     SX(584)     SX(593)
                          SX(594)     SX(595)     SX(599)     SX(604)
                          SX(616)     SX(617)     SX(619)     SX(626)
                          SX(630)     SX(634)     SX(639)     SX(641)
                          SX(684)     SX(686)     SX(690)     SX(725)
                          SX(726)     SX(732)     SX(736)     SX(770)
                          SX(771)     SX(776)     SX(782)     SX(784)
                          SX(830)     SX(834)     SX(870)     SX(874)
                          SX(879)     SX(881)     SX(928)     SX(929)
                          SX(934)     SX(938)     SX(939)     SX(976)
                          SX(980)     SX(1018)    SX(1022)    SX(1027)
                          SX(1029)    SX(1078)    SX(1080)    SX(1089)
                          SX(1130)    SX(1135)    SX(1141)    SX(1195)
                          SX(1200)    SX(1206)    SX(1261)    SX(1262)
                          SX(1267)    SX(1270)    SX(1314)    SX(1315)
                          SX(1320)    SX(1326)    SX(1328)    SX(1383)
                          SX(1388)    SX(1391)    SX(1392)    SX(1437)
                          SX(1441)    SX(1486)    SX(1490)    SX(1495)
                          SX(1497)    SX(1552)    SX(1556)    SX(1643)
                          SX(1648)    SX(1842)    SX(1879)    SX(1884)
                          SX(1931)    SX(1935)    SX(2034)    SX(2220)
                          SX(2224)    SX(2291)    SX(2432)    SX(2433)
                          SX(2434)    SX(2435)    SX(2436)    SX(2437)
                          SX(2444)    SX(2445)    SX(2490)    SX(2557)
                          SX(2562)    SX(2711)    SX(2893)    SX(3002)
                          SX(3106)    SX(3226)    SX(3635)    SX(3636)
                          SX(3720)    SX(3721)    SX(3814)    SX(3946)
                          SX(3947)    SX(4042)    SX(4136)    SX(4267)
                          SX(4693)    SX(4694)    SX(5864)    SX(5956)
                          SX(6213)    SX(6304)    SX(6395)    SX(6524)
                          SX(6525)    SX(6656)    SX(6944)    SX(7417)
                          SX(7678)    SX(7771)    SX(8095)    SX(8874)
                          SX(8965)    SX(9217)    SX(9523)    SX(9524)
                          SX(10392)   SX(10484)   SX(10615)""",
                site_density=2.483e-09,
                phases="gas",
          reactions='surface1-*',
                initial_state=state(temperature=300.0, pressure=OneAtm))

#-------------------------------------------------------------------------------
# Element data
#-------------------------------------------------------------------------------

element(symbol='Ci', atomic_mass=13.003)
element(symbol='D', atomic_mass=2.014)
element(symbol='Oi', atomic_mass=17.999)
element(symbol='T', atomic_mass=3.016)
element(symbol='X', atomic_mass=195.083)
#-------------------------------------------------------------------------------
# Species data
#-------------------------------------------------------------------------------

species(name='n-heptane',
        atoms='C:7 H:16',
        thermo=(NASA([100.00, 1262.75],
                     [-2.93512125E-03,  7.69375610E-02, -3.48031525E-05,
                       1.86160506E-09,  2.01550529E-12, -2.57829334E+04,
                       3.00312819E+01]),
                NASA([1262.75, 5000.00],
                     [ 1.38379971E+01,  4.85941816E-02, -1.95472819E-05,
                       3.52833289E-09, -2.39061569E-13, -3.05142526E+04,
                      -4.48654615E+01])))

species(name='Ar',
        atoms='Ar:1',
        thermo=(NASA([200.00, 1000.00],
                     [ 2.50000000E+00,  0.00000000E+00,  0.00000000E+00,
                       0.00000000E+00,  0.00000000E+00, -7.45375000E+02,
                       4.37967000E+00]),
                NASA([1000.00, 6000.00],
                     [ 2.50000000E+00,  0.00000000E+00,  0.00000000E+00,
                       0.00000000E+00,  0.00000000E+00, -7.45375000E+02,
                       4.37967000E+00])))

species(name='He',
        atoms='He:1',
        thermo=(NASA([200.00, 1000.00],
                     [ 2.50000000E+00,  0.00000000E+00,  0.00000000E+00,
                       0.00000000E+00,  0.00000000E+00, -7.45375000E+02,
                       9.28724000E-01]),
                NASA([1000.00, 6000.00],
                     [ 2.50000000E+00,  0.00000000E+00,  0.00000000E+00,
                       0.00000000E+00,  0.00000000E+00, -7.45375000E+02,
                       9.28724000E-01])))

species(name='Ne',
        atoms='Ne:1',
        thermo=(NASA([200.00, 1000.00],
                     [ 2.50000000E+00,  0.00000000E+00,  0.00000000E+00,
                       0.00000000E+00,  0.00000000E+00, -7.45375000E+02,
                       3.35532000E+00]),
                NASA([1000.00, 6000.00],
                     [ 2.50000000E+00,  0.00000000E+00,  0.00000000E+00,
                       0.00000000E+00,  0.00000000E+00, -7.45375000E+02,
                       3.35532000E+00])))

species(name='N2',
        atoms='N:2',
        thermo=(NASA([200.00, 1000.00],
                     [ 3.53101000E+00, -1.23661000E-04, -5.02999000E-07,
                       2.43531000E-09, -1.40881000E-12, -1.04698000E+03,
                       2.96747000E+00]),
                NASA([1000.00, 6000.00],
                     [ 2.95258000E+00,  1.39690000E-03, -4.92632000E-07,
                       7.86010000E-11, -4.60755000E-15, -9.23949000E+02,
                       5.87189000E+00])))

species(name='C2H4(2)',
        atoms='C:2 H:4',
        thermo=(NASA([100.00, 979.37],
                     [ 3.97469045E+00, -4.75813325E-03,  4.16772624E-05,
                      -4.51377676E-08,  1.54218287E-11,  4.91540855E+03,
                       3.62439976E+00]),
                NASA([979.37, 5000.00],
                     [ 3.55670229E+00,  1.10625819E-02, -4.17009559E-06,
                       7.85564219E-10, -5.70042086E-14,  4.32042473E+03,
                       2.17665377E+00])))

species(name='C4H8-1(3)',
        atoms='C:4 H:8',
        thermo=(NASA([100.00, 1007.28],
                     [ 2.58772978E+00,  2.32777883E-02,  1.93412653E-05,
                      -3.55496729E-08,  1.36906178E-11, -1.91872929E+03,
                       1.45750592E+01]),
                NASA([1007.28, 5000.00],
                     [ 7.20516863E+00,  2.36361619E-02, -9.03150325E-06,
                       1.65392736E-09, -1.16019318E-13, -3.79733809E+03,
                      -1.24426086E+01])))

species(name='C4H8-2(4)',
        atoms='C:4 H:8',
        thermo=(NASA([100.00, 1157.78],
                     [ 2.51999305E+00,  2.76811707E-02,  9.44135366E-07,
                      -1.25013222E-08,  4.67160311E-12, -3.34374810E+03,
                       1.30195268E+01]),
                NASA([1157.78, 5000.00],
                     [ 6.04218222E+00,  2.60073554E-02, -1.04844041E-05,
                       1.90882450E-09, -1.30601743E-13, -4.86273126E+03,
                      -7.52672501E+00])))

species(name='H2(17)',
        atoms='H:2',
        thermo=(NASA([100.00, 1959.08],
                     [ 3.43536411E+00,  2.12710383E-04, -2.78625110E-07,
                       3.40267219E-10, -7.76032129E-14, -1.03135984E+03,
                      -3.90841731E+00]),
                NASA([1959.08, 5000.00],
                     [ 2.78816619E+00,  5.87640475E-04,  1.59010635E-07,
                      -5.52739465E-11,  4.34311304E-15, -5.96144481E+02,
                       1.12730527E-01])))

species(name='C2H6(73)',
        atoms='C:2 H:6',
        thermo=(NASA([100.00, 1012.42],
                     [ 3.72239308E+00,  1.65083640E-03,  3.44175601E-05,
                      -3.76858321E-08,  1.24450696E-11, -1.15575902E+04,
                       4.68247939E+00]),
                NASA([1012.42, 5000.00],
                     [ 2.82848184E+00,  1.73040581E-02, -6.73334315E-06,
                       1.23742041E-09, -8.65676548E-14, -1.19978077E+04,
                       5.93812118E+00])))

species(name='C4H10(77)',
        atoms='C:4 H:10',
        thermo=(NASA([100.00, 1147.60],
                     [ 2.16918887E+00,  3.43904101E-02, -1.61547012E-06,
                      -1.30728593E-08,  5.17358217E-12, -1.72505138E+04,
                       1.46546529E+01]),
                NASA([1147.60, 5000.00],
                     [ 6.78899599E+00,  3.03598725E-02, -1.21262363E-05,
                       2.19945742E-09, -1.50289895E-13, -1.91057812E+04,
                      -1.17327118E+01])))

species(name='C4H8(193)',
        atoms='C:4 H:8',
        thermo=(NASA([100.00, 1061.32],
                     [ 2.52506524E+00,  2.64750742E-02,  7.08428866E-06,
                      -2.07740178E-08,  8.00465619E-12, -4.02607206E+03,
                       1.28856643E+01]),
                NASA([1061.32, 5000.00],
                     [ 6.48663440E+00,  2.49945454E-02, -9.83291861E-06,
                       1.79345326E-09, -1.24009900E-13, -5.62448308E+03,
                      -1.00311177E+01])))

species(name='C6H12(199)',
        atoms='C:6 H:12',
        thermo=(NASA([100.00, 3144.66],
                     [ 1.62486458E+00,  5.81706991E-02, -2.94074833E-05,
                       6.41454590E-09, -5.27512950E-13, -9.95070714E+03,
                       2.05730382E+01]),
                NASA([3144.66, 5000.00],
                     [ 2.63111437E+01,  2.09625560E-02, -8.88917459E-06,
                       1.47742097E-09, -8.83257986E-14, -2.26053361E+04,
                      -1.22241742E+02])))

species(name='C6H14(251)',
        atoms='C:6 H:14',
        thermo=(NASA([100.00, 1048.16],
                     [ 8.83613659E-01,  5.70448382E-02, -2.15470473E-06,
                      -2.85517584E-08,  1.26620792E-11, -2.27982669E+04,
                       2.50352013E+01]),
                NASA([1048.16, 5000.00],
                     [ 1.11353754E+01,  4.25244871E-02, -1.65830081E-05,
                       3.01866041E-09, -2.09014516E-13, -2.62988340E+04,
                      -3.13526859E+01])))

species(name='C6H14(281)',
        atoms='C:6 H:14',
        thermo=(NASA([100.00, 1237.13],
                     [ 9.36168930E-01,  5.80634071E-02, -1.05209441E-05,
                      -1.36307211E-08,  5.73390960E-12, -2.34249395E+04,
                       2.40003868E+01]),
                NASA([1237.13, 5000.00],
                     [ 1.03163526E+01,  4.66435017E-02, -1.96012235E-05,
                       3.61723458E-09, -2.48218670E-13, -2.71928433E+04,
                      -2.90978404E+01])))

species(name='C4H10(302)',
        atoms='C:4 H:10',
        thermo=(NASA([100.00, 987.07],
                     [ 2.18595704E+00,  3.04310946E-02,  1.83394870E-05,
                      -4.04100111E-08,  1.64485852E-11, -1.82080415E+04,
                       1.37947067E+01]),
                NASA([987.07, 5000.00],
                     [ 8.84805025E+00,  2.61184111E-02, -9.57935748E-06,
                       1.72896615E-09, -1.21008029E-13, -2.06283373E+04,
                      -2.38572247E+01])))

species(name='C6H14(308)',
        atoms='C:6 H:14',
        thermo=(NASA([100.00, 1002.80],
                     [ 9.62496218E-01,  5.35101546E-02,  1.32031263E-05,
                      -4.70259939E-08,  1.98553715E-11, -2.36936857E+04,
                       2.41378071E+01]),
                NASA([1002.80, 5000.00],
                     [ 1.14868354E+01,  4.22487190E-02, -1.59010293E-05,
                       2.86998539E-09, -1.99355079E-13, -2.73489714E+04,
                      -3.43665507E+01])))

species(name='C6H12(377)',
        atoms='C:6 H:12',
        thermo=(NASA([100.00, 1698.32],
                     [ 1.59096309E+00,  5.26757966E-02, -1.83560662E-05,
                      -1.06687924E-09,  1.11258465E-12, -1.06220129E+04,
                       2.16531524E+01]),
                NASA([1698.32, 5000.00],
                     [ 1.44974887E+01,  3.62933219E-02, -1.62657874E-05,
                       2.97195174E-09, -1.97265691E-13, -1.70271902E+04,
                      -5.34000400E+01])))

species(name='C6H12(416)',
        atoms='C:6 H:12',
        thermo=(NASA([100.00, 1917.59],
                     [ 2.29988559E+00,  4.93348058E-02, -1.39910600E-05,
                      -2.79392986E-09,  1.20742677E-12, -1.03230295E+04,
                       1.84312025E+01]),
                NASA([1917.59, 5000.00],
                     [ 1.85713833E+01,  3.37487534E-02, -1.61574143E-05,
                       2.95099503E-09, -1.92337797E-13, -1.99382403E+04,
                      -7.94628222E+01])))

species(name='C6H14(537)',
        atoms='C:6 H:14',
        thermo=(NASA([100.00, 999.59],
                     [ 1.13917006E+00,  5.18711187E-02,  1.51957332E-05,
                      -4.44289368E-08,  1.80496765E-11, -2.48256365E+04,
                       2.08096016E+01]),
                NASA([999.59, 5000.00],
                     [ 8.28876430E+00,  4.86580683E-02, -1.80935552E-05,
                       3.19042654E-09, -2.16942349E-13, -2.75237932E+04,
                      -2.00268176E+01])))

species(name='C8H16(628)',
        atoms='C:8 H:16',
        thermo=(NASA([100.00, 1769.25],
                     [-4.28292121E-01,  8.85244980E-02, -5.42905375E-05,
                       1.68301934E-08, -2.14054693E-12, -1.82717116E+04,
                       3.15313747E+01]),
                NASA([1769.25, 5000.00],
                     [ 1.85303805E+01,  4.56621437E-02, -1.79513356E-05,
                       3.13739455E-09, -2.05727937E-13, -2.49802795E+04,
                      -7.07503583E+01])))

species(name='C6H12(723)',
        atoms='C:6 H:12',
        thermo=(NASA([100.00, 1083.88],
                     [ 1.36792050E+00,  4.60329646E-02,  1.03880539E-05,
                      -3.61559110E-08,  1.41148566E-11, -1.08959262E+04,
                       2.21769146E+01]),
                NASA([1083.88, 5000.00],
                     [ 1.07760956E+01,  3.82407598E-02, -1.60947986E-05,
                       3.05492336E-09, -2.16279178E-13, -1.45171346E+04,
                      -3.12665872E+01])))

species(name='C6H14(730)',
        atoms='C:6 H:14',
        thermo=(NASA([100.00, 979.31],
                     [ 1.15760846E+00,  4.88425844E-02,  2.64134963E-05,
                      -6.01100875E-08,  2.45805344E-11, -2.37935340E+04,
                       2.21623549E+01]),
                NASA([979.31, 5000.00],
                     [ 1.04141290E+01,  4.37548101E-02, -1.59117938E-05,
                       2.82121604E-09, -1.94532295E-13, -2.71755515E+04,
                      -3.03123408E+01])))

species(name='S(2611)',
        atoms='C:8 H:16',
        thermo=(NASA([100.00, 1769.25],
                     [-4.28292121E-01,  8.85244980E-02, -5.42905375E-05,
                       1.68301934E-08, -2.14054693E-12, -1.82717116E+04,
                       3.15313747E+01]),
                NASA([1769.25, 5000.00],
                     [ 1.85303805E+01,  4.56621437E-02, -1.79513356E-05,
                       3.13739455E-09, -2.05727937E-13, -2.49802795E+04,
                      -7.07503583E+01])))

species(name='S(3116)',
        atoms='C:8 H:16',
        thermo=(NASA([100.00, 1656.80],
                     [-6.02931603E-02,  8.75280985E-02, -5.36945812E-05,
                       1.68653197E-08, -2.22310022E-12, -1.84279679E+04,
                       3.02070925E+01]),
                NASA([1656.80, 5000.00],
                     [ 1.47541622E+01,  5.17617196E-02, -2.13131886E-05,
                       3.83564554E-09, -2.57012667E-13, -2.33368929E+04,
                      -4.87437538E+01])))

species(name='S(11724)',
        atoms='C:8 H:16',
        thermo=(NASA([100.00, 1729.54],
                     [-4.20182753E-01,  8.87806550E-02, -5.49370594E-05,
                       1.73331864E-08, -2.25351533E-12, -1.88644715E+04,
                       3.05850348E+01]),
                NASA([1729.54, 5000.00],
                     [ 1.78627255E+01,  4.64965121E-02, -1.82645143E-05,
                       3.19733232E-09, -2.10205028E-13, -2.51886339E+04,
                      -6.76356993E+01])))

species(name='X(1)',
        atoms='X:1',
        thermo=(NASA([100.00, 1554.81],
                     [ 7.10134880E-03, -4.25615041E-05,  8.98521156E-08,
                      -7.80182565E-11,  2.32462166E-14, -8.76099414E-01,
                      -3.11209498E-02]),
                NASA([1554.81, 5000.00],
                     [ 1.60301287E-01, -2.52237396E-04,  1.14182282E-07,
                      -1.21473809E-11,  3.85806589E-16, -7.08108147E+01,
                      -9.09535600E-01])))

species(name='HX(5)',
        atoms='H:1 X:1',
        thermo=(NASA([100.00, 952.91],
                     [-3.80957846E-01,  5.47219393E-03,  2.60946928E-06,
                      -9.65008412E-09,  4.63967474E-12, -5.95314464E+03,
                       1.01722845E+00]),
                NASA([952.91, 5000.00],
                     [ 2.80337105E+00, -5.41002993E-04,  4.99482316E-07,
                      -7.54902555E-11,  3.06721398E-15, -6.89388323E+03,
                      -1.59435356E+01])))

species(name='C2H3X(37)',
        atoms='C:2 H:3 X:1',
        thermo=(NASA([100.00, 928.60],
                     [ 3.83104022E+00, -8.76542826E-03,  6.98017027E-05,
                      -8.68052566E-08,  3.33256145E-11, -1.35270051E+03,
                      -1.81156365E+01]),
                NASA([928.60, 5000.00],
                     [ 8.78015372E+00,  1.92565992E-03,  8.25424482E-07,
                      -1.63654020E-10,  5.70926320E-15, -3.65193853E+03,
                      -4.90566656E+01])))

species(name='C2H5X(41)',
        atoms='C:2 H:5 X:1',
        thermo=(NASA([100.00, 803.89],
                     [-1.64624290E+00,  3.89625197E-02, -4.31124593E-05,
                       2.97071589E-08, -8.80200440E-12, -8.05992278E+03,
                       9.27319544E+00]),
                NASA([803.89, 5000.00],
                     [ 1.97599860E+00,  2.09382411E-02, -9.47914613E-06,
                       1.81392354E-09, -1.27205831E-13, -8.64227656E+03,
                      -7.41117371E+00])))

species(name='C4H7X(42)',
        atoms='C:4 H:7 X:1',
        thermo=(NASA([100.00, 971.02],
                     [ 2.64368251E+00,  1.79003685E-02,  4.24457324E-05,
                      -6.44047422E-08,  2.49602315E-11, -7.01952687E+03,
                      -6.70003109E+00]),
                NASA([971.02, 5000.00],
                     [ 9.25860008E+00,  2.04066151E-02, -7.39155270E-06,
                       1.37023983E-09, -9.94156257E-14, -9.70696115E+03,
                      -4.56419548E+01])))

species(name='C4H7X(43)',
        atoms='C:4 H:7 X:1',
        thermo=(NASA([100.00, 986.68],
                     [ 2.45797290E+00,  2.47218439E-02,  2.01282012E-05,
                      -4.02730332E-08,  1.62483577E-11,  1.38266194E+03,
                      -5.12988514E+00]),
                NASA([986.68, 5000.00],
                     [ 8.87901611E+00,  2.09043388E-02, -7.83847728E-06,
                       1.44075651E-09, -1.02346191E-13, -9.65709419E+02,
                      -4.15009568E+01])))

species(name='C4H7X(44)',
        atoms='C:4 H:7 X:1',
        thermo=(NASA([100.00, 965.04],
                     [ 2.56885679E+00,  1.97490862E-02,  3.72996972E-05,
                      -6.04065123E-08,  2.40010228E-11, -9.12266684E+03,
                      -8.56593019E+00]),
                NASA([965.04, 5000.00],
                     [ 9.89750247E+00,  1.86147853E-02, -6.38912892E-06,
                       1.17316108E-09, -8.55462900E-14, -1.18988365E+04,
                      -5.07166347E+01])))

species(name='C4H7X(45)',
        atoms='C:4 H:7 X:1',
        thermo=(NASA([100.00, 949.34],
                     [ 2.54262411E+00,  1.77379351E-02,  4.93913107E-05,
                      -7.72926578E-08,  3.10681685E-11, -7.89703345E+03,
                      -8.46811948E+00]),
                NASA([949.34, 5000.00],
                     [ 1.15217625E+01,  1.60010436E-02, -4.89849803E-06,
                       8.84035360E-10, -6.63762686E-14, -1.12284555E+04,
                      -5.98873444E+01])))

species(name='C4H7X(48)',
        atoms='C:4 H:7 X:1',
        thermo=(NASA([100.00, 963.12],
                     [ 2.84105734E+00,  1.13891249E-02,  6.15521374E-05,
                      -8.44896112E-08,  3.21387448E-11, -6.31265469E+03,
                      -1.87445310E+00]),
                NASA([963.12, 5000.00],
                     [ 9.41772668E+00,  1.97006233E-02, -6.87728119E-06,
                       1.28330586E-09, -9.49080777E-14, -9.23178399E+03,
                      -4.19338421E+01])))

species(name='C4H7X(49)',
        atoms='C:4 H:7 X:1',
        thermo=(NASA([100.00, 984.26],
                     [ 2.62897053E+00,  1.98265819E-02,  3.32359789E-05,
                      -5.27981164E-08,  2.03675811E-11, -1.06593045E+04,
                      -9.11747238E+00]),
                NASA([984.26, 5000.00],
                     [ 8.50209518E+00,  2.14493865E-02, -8.08476653E-06,
                       1.50191195E-09, -1.07734856E-13, -1.30501939E+04,
                      -4.36311929E+01])))

species(name='C2H4X(50)',
        atoms='C:2 H:4 X:1',
        thermo=(NASA([100.00, 922.95],
                     [-1.51743966E+00,  3.54364160E-02, -3.81055319E-05,
                       2.35706536E-08, -6.09806371E-12, -1.37265356E+03,
                       5.77181645E+00]),
                NASA([922.95, 5000.00],
                     [ 2.83447637E+00,  1.65755512E-02, -7.45246257E-06,
                       1.42931809E-09, -1.00637324E-13, -2.17597508E+03,
                      -1.48747324E+01])))

species(name='C4H9X(57)',
        atoms='C:4 H:9 X:1',
        thermo=(NASA([100.00, 1009.34],
                     [ 2.45384267E+00,  2.40992831E-02,  3.11016702E-05,
                      -4.95707962E-08,  1.85297228E-11, -1.53633005E+04,
                      -3.52852897E+00]),
                NASA([1009.34, 5000.00],
                     [ 7.52077606E+00,  2.82414636E-02, -1.10516169E-05,
                       2.04773827E-09, -1.44619150E-13, -1.76199936E+04,
                      -3.41327944E+01])))

species(name='C4H9X(58)',
        atoms='C:4 H:9 X:1',
        thermo=(NASA([100.00, 993.09],
                     [ 2.22649398E+00,  2.86530264E-02,  2.37815365E-05,
                      -4.60602647E-08,  1.82913397E-11, -1.40802850E+04,
                      -3.55142154E+00]),
                NASA([993.09, 5000.00],
                     [ 9.09062474E+00,  2.59568966E-02, -9.83403953E-06,
                       1.80637333E-09, -1.27731585E-13, -1.66740041E+04,
                      -4.28140174E+01])))

species(name='C2H2X(60)',
        atoms='C:2 H:2 X:1',
        thermo=(NASA([100.00, 1146.92],
                     [-1.35665820E+00,  2.85337846E-02, -3.11240302E-05,
                       1.70133631E-08, -3.63321309E-12,  1.74003146E+03,
                       3.79543002E+00]),
                NASA([1146.92, 5000.00],
                     [ 4.86808415E+00,  6.82426487E-03, -2.73109304E-06,
                       5.09412825E-10, -3.57465702E-14,  3.12181644E+02,
                      -2.70886136E+01])))

species(name='C4H6X(64)',
        atoms='C:4 H:6 X:1',
        thermo=(NASA([100.00, 974.48],
                     [ 2.42620337E+00,  2.52885336E-02,  1.53430080E-05,
                      -3.72061538E-08,  1.58647420E-11,  8.80002774E+03,
                      -6.01443175E+00]),
                NASA([974.48, 5000.00],
                     [ 1.01588765E+01,  1.62334698E-02, -5.63829389E-06,
                       1.03706763E-09, -7.51905962E-14,  6.21583244E+03,
                      -4.86468904E+01])))

species(name='C2H3X(66)',
        atoms='C:2 H:3 X:1',
        thermo=(NASA([100.00, 808.69],
                     [-1.45264836E+00,  3.42706810E-02, -4.40841426E-05,
                       3.22606409E-08, -9.67619190E-12, -4.94284258E+03,
                       5.13281617E+00]),
                NASA([808.69, 5000.00],
                     [ 2.64803324E+00,  1.39871085E-02, -6.46021660E-06,
                       1.24353615E-09, -8.72724468E-14, -5.60606261E+03,
                      -1.37797660E+01])))

species(name='C4H5X(68)',
        atoms='C:4 H:5 X:1',
        thermo=(NASA([100.00, 2006.84],
                     [ 2.38275743E+00,  3.11302534E-02, -1.85260834E-05,
                       5.28507954E-09, -6.01640142E-13,  1.19052385E+04,
                      -6.28645495E+00]),
                NASA([2006.84, 5000.00],
                     [ 1.11623603E+01,  1.36308858E-02, -5.44628333E-06,
                       9.40003937E-10, -6.03565829E-14,  8.38138881E+03,
                      -5.47584911E+01])))

species(name='C6H13X(70)',
        atoms='C:6 H:13 X:1',
        thermo=(NASA([100.00, 1130.03],
                     [ 1.07506191E+00,  5.48323022E-02, -5.85590070E-06,
                      -1.87591600E-08,  7.94133363E-12, -2.11569795E+04,
                       6.68463407E+00]),
                NASA([1130.03, 5000.00],
                     [ 9.23604169E+00,  4.49491400E-02, -1.79634615E-05,
                       3.26617478E-09, -2.23871575E-13, -2.42148202E+04,
                      -3.90539292E+01])))

species(name='C6H13X(71)',
        atoms='C:6 H:13 X:1',
        thermo=(NASA([100.00, 1104.49],
                     [ 9.11727952E-01,  5.71187364E-02, -4.42099107E-06,
                      -2.31823222E-08,  9.89574697E-12, -2.04945777E+04,
                       4.93078500E+00]),
                NASA([1104.49, 5000.00],
                     [ 1.03932270E+01,  4.50091012E-02, -1.81629213E-05,
                       3.33344658E-09, -2.30372468E-13, -2.39448520E+04,
                      -4.78920572E+01])))

species(name='C6H13X(72)',
        atoms='C:6 H:13 X:1',
        thermo=(NASA([100.00, 1210.10],
                     [ 1.10829393E+00,  5.37305715E-02, -6.36959419E-07,
                      -2.23981043E-08,  8.32675983E-12, -2.17704316E+04,
                       5.70636748E+00]),
                NASA([1210.10, 5000.00],
                     [ 9.93886732E+00,  4.70613564E-02, -2.02855378E-05,
                       3.80586226E-09, -2.64097040E-13, -2.55564798E+04,
                      -4.53930264E+01])))

species(name='C4H8X(74)',
        atoms='C:4 H:8 X:1',
        thermo=(NASA([100.00, 1046.93],
                     [ 2.02447475E+00,  3.62618278E-02, -5.41977266E-06,
                      -1.45304586E-08,  7.05749222E-12, -6.53254699E+03,
                      -5.30574655E+00]),
                NASA([1046.93, 5000.00],
                     [ 9.28684800E+00,  2.36839215E-02, -9.13272097E-06,
                       1.67372899E-09, -1.16818225E-13, -8.88451892E+03,
                      -4.46458978E+01])))

species(name='C4H7X(76)',
        atoms='C:4 H:7 X:1',
        thermo=(NASA([100.00, 1221.74],
                     [ 2.15601729E+00,  3.51720455E-02, -1.43509803E-05,
                      -1.22780655E-09,  1.64675657E-12, -3.31820694E+03,
                      -5.29144518E+00]),
                NASA([1221.74, 5000.00],
                     [ 8.60191757E+00,  2.25591610E-02, -9.29039389E-06,
                       1.69934717E-09, -1.16238572E-13, -5.52696573E+03,
                      -4.02736382E+01])))

species(name='C4H6X(82)',